40
 generated by JK
  CA	1.9676877 1.5879415 2.826157 
  CA	2.2841275 2.0426085 1.4721148 
  CA	1.9683923 1.1595309 0.2611204 
  CA	2.7213178 0.18091439 0.072785616 
  CA	1.0846586 1.4287257 -0.76197803 
  CA	0.17985588 0.47781315 -1.4009181 
  CA	-1.2521386 0.61300737 -0.93051517 
  CA	-2.0904322 1.5010972 -1.383644 
  CA	-1.5533197 -0.40349936 -0.033317257 
  CA	-1.0867053 -0.6345047 1.3322546 
  CA	-1.5043002 -2.0788438 1.5737773 
  CA	-2.6569004 -2.4169166 1.8933101 
  CA	-0.6591854 -3.0254467 1.0647857 
  CA	0.12023871 -2.5472026 -0.045438476 
  CA	-0.745382 -1.5757945 -0.822567 
  CA	-1.4288794 -2.0322614 -1.7752845 
  CA	-0.30634767 -0.29747325 -0.7994645 
  CA	0.6463927 0.3164114 -1.6946323 
  CA	1.1236366 1.4802328 -0.8836641 
  CA	0.9748714 2.6700072 -1.2699537 
  CA	1.8345239 1.188371 0.27386108 
  CA	1.3641112 0.283621 1.3410892 
  CA	-0.09071656 0.3855937 1.8372898 
  CA	-0.56583136 1.420663 2.3599186 
  CA	-1.0005836 -0.58758956 1.3940274 
  CA	-0.6559564 -1.2861903 0.1440156 
  CA	-0.3646645 -0.24338506 -0.91344476 
  CA	-1.2187958 0.6314031 -1.0259382 
  CA	0.99618906 0.047194988 -1.1273739 
  CA	1.4934393 0.9689565 -0.073242135 
  CA	0.43940175 1.3887856 0.9795393 
  CA	-0.2428352 2.412171 0.8524858 
  CA	0.04940653 0.37902427 1.8393629 
  CA	-1.0318773 -0.4763235 1.4275724 
  CA	-1.4256551 -0.4088562 -0.087565154 
  CA	-1.2853163 0.5903528 -0.8363632 
  CA	1.1187726 0.06294303 -1.1850907 
  CA	1.3385637 0.5090675 -2.35017 
  CA	-0.7661254 -1.5175433 -0.70092595 
  CA	0.6311953 -1.3622533 -1.087035 
40
 generated by JK
  CA	1.9729289 1.5910327 2.827169 
  CA	2.28513 2.0473156 1.4719558 
  CA	1.9700121 1.159078 0.26093102 
  CA	2.7228134 0.17979908 0.07420346 
  CA	1.0848918 1.4316387 -0.76160955 
  CA	0.1796269 0.48011652 -1.4019998 
  CA	-1.2517467 0.61428744 -0.93026525 
  CA	-2.0932384 1.5005987 -1.3866442 
  CA	-1.5541873 -0.40503824 -0.03248348 
  CA	-1.0873942 -0.6350361 1.3327025 
  CA	-1.5061612 -2.0802114 1.5739336 
  CA	-2.661052 -2.4202216 1.8975918 
  CA	-0.65822184 -3.028699 1.0645592 
  CA	0.11908366 -2.5468068 -0.043989748 
  CA	-0.74657774 -1.5776033 -0.8228242 
  CA	-1.4292762 -2.0354657 -1.7769012 
  CA	-0.3057884 -0.29764402 -0.79998446 
  CA	0.6477109 0.31716412 -1.69479 
  CA	1.1241205 1.4823376 -0.8847955 
  CA	0.97667 2.674479 -1.2733812 
  CA	1.8353477 1.1878953 0.273971 
  CA	1.3631958 0.28295898 1.3400793 
  CA	-0.0905944 0.3858077 1.8392074 
  CA	-0.56627405 1.4229716 2.3652525 
  CA	-1.0009711 -0.58848137 1.3943956 
  CA	-0.6545788 -1.2874751 0.144599 
  CA	-0.3655681 -0.24427329 -0.91402423 
  CA	-1.2182312 0.63038844 -1.0252906 
  CA	0.9972911 0.047278054 -1.1300712 
  CA	1.4943666 0.9692486 -0.07576438 
  CA	0.44072628 1.3899133 0.98000205 
  CA	-0.24170211 2.4143968 0.8521528 
  CA	0.049597207 0.37888652 1.8402684 
  CA	-1.0319487 -0.47608304 1.4298584 
  CA	-1.4266598 -0.41029727 -0.088500604 
  CA	-1.2850461 0.5912186 -0.83647156 
  CA	1.118974 0.06391218 -1.183957 
  CA	1.3404462 0.5084734 -2.3521707 
  CA	-0.7686667 -1.5197611 -0.70360595 
  CA	0.6328953 -1.3626703 -1.0868858 
40
 generated by JK
  CA	1.9714357 1.5929456 2.8343782 
  CA	2.2889347 2.0468752 1.4779329 
  CA	1.973962 1.1640626 0.26115614 
  CA	2.7304704 0.18179052 0.0720932 
  CA	1.0877068 1.4321976 -0.7639373 
  CA	0.18013243 0.47929046 -1.4043703 
  CA	-1.2561768 0.6139617 -0.9329433 
  CA	-2.0940514 1.5045509 -1.3868785 
  CA	-1.5577219 -0.40292042 -0.033550803 
  CA	-1.090293 -0.6352753 1.3355505 
  CA	-1.5083525 -2.0831757 1.5778711 
  CA	-2.662699 -2.4214063 1.8956742 
  CA	-0.66159654 -3.0321627 1.0674925 
  CA	0.120994106 -2.554142 -0.046818532 
  CA	-0.74693865 -1.579354 -0.8255997 
  CA	-1.4326148 -2.03631 -1.7804863 
  CA	-0.30817306 -0.29785967 -0.80137634 
  CA	0.6463659 0.31831852 -1.6996816 
  CA	1.1270053 1.4839737 -0.88689417 
  CA	0.9752672 2.6752934 -1.2716998 
  CA	1.8407001 1.19227 0.27404234 
  CA	1.366822 0.28524593 1.3438104 
  CA	-0.09138974 0.38581678 1.8417237 
  CA	-0.5675543 1.4241134 2.3629618 
  CA	-1.0031899 -0.5876478 1.3979788 
  CA	-0.65821093 -1.2883158 0.14324327 
  CA	-0.36607486 -0.24453242 -0.9159857 
  CA	-1.2214701 0.6346711 -1.0280138 
  CA	0.9986448 0.045612924 -1.1278841 
  CA	1.4983034 0.97018564 -0.07095798 
  CA	0.44094813 1.3933051 0.9812798 
  CA	-0.2433199 2.416852 0.8530932 
  CA	0.04881318 0.3806942 1.8435826 
  CA	-1.0350451 -0.47916973 1.4302516 
  CA	-1.4294529 -0.4083255 -0.08606078 
  CA	-1.2894145 0.59073067 -0.83822787 
  CA	1.1224808 0.06253675 -1.1885011 
  CA	1.3418398 0.51076496 -2.3561988 
  CA	-0.7678413 -1.520179 -0.70236635 
  CA	0.632331 -1.3674353 -1.089724 
40
 generated by JK
  CA	1.9688865 1.58944 2.8300009 
  CA	2.2866411 2.0436 1.4748626 
  CA	1.9708925 1.1618708 0.26115 
  CA	2.725339 0.18161532 0.07253921 
  CA	1.0860679 1.4299192 -0.7629767 
  CA	0.18003254 0.4781834 -1.4024497 
  CA	-1.2539868 0.6133362 -0.931833 
  CA	-2.0922382 1.5031474 -1.3843832 
  CA	-1.5553901 -0.40308976 -0.033443622 
  CA	-1.088086 -0.6347618 1.3339125 
  CA	-1.5058231 -2.080709 1.5759628 
  CA	-2.6589036 -2.4187694 1.8941259 
  CA	-0.66031134 -3.0282423 1.0664489 
  CA	0.1207207 -2.5508432 -0.04609554 
  CA	-0.7460807 -1.577539 -0.82402396 
  CA	-1.4308529 -2.0338206 -1.7775562 
  CA	-0.30724937 -0.2977384 -0.80039483 
  CA	0.6464304 0.3171726 -1.6969645 
  CA	1.1251234 1.4816784 -0.88497895 
  CA	0.9750829 2.671544 -1.2704324 
  CA	1.8375967 1.1905222 0.27387956 
  CA	1.3661243 0.28433645 1.3429005 
  CA	-0.091089614 0.38595378 1.8394656 
  CA	-0.5663206 1.4220335 2.3607173 
  CA	-1.0017155 -0.5874817 1.3960842 
  CA	-0.65735674 -1.2872474 0.14382732 
  CA	-0.3650782 -0.24394873 -0.91460645 
  CA	-1.2204211 0.6328683 -1.0274633 
  CA	0.99723977 0.046402473 -1.1273911 
  CA	1.4958274 0.9699357 -0.07170295 
  CA	0.43990153 1.3909771 0.9805587 
  CA	-0.24328017 2.4145732 0.85296154 
  CA	0.0489351 0.3798958 1.8414519 
  CA	-1.033357 -0.47746336 1.4286002 
  CA	-1.4273555 -0.4084745 -0.08679341 
  CA	-1.2873223 0.59055364 -0.83762395 
  CA	1.1207538 0.06239306 -1.1873657 
  CA	1.3395783 0.5100478 -2.3525825 
  CA	-0.76637614 -1.5186404 -0.70074093 
  CA	0.6313656 -1.3645418 -1.0885031 
40
 generated by JK
  CA	1.9686394 1.588785 2.8274846 
  CA	2.2857006 2.043095 1.4732413 
  CA	1.9697291 1.160224 0.2612494 
  CA	2.7227306 0.1809439 0.0729417 
  CA	1.085227 1.4294982 -0.7623549 
  CA	0.17979649 0.4782213 -1.4017702 
  CA	-1.2526646 0.6132704 -0.9310144 
  CA	-2.091562 1.5020368 -1.3841336 
  CA	-1.554153 -0.4036777 -0.033166055 
  CA	-1.0871961 -0.63484895 1.3327456 
  CA	-1.5051101 -2.079861 1.5746306 
  CA	-2.658167 -2.4179523 1.8945918 
  CA	-0.6595187 -3.0266378 1.0649378 
  CA	0.12035406 -2.5481725 -0.045634445 
  CA	-0.74534744 -1.5768311 -0.8232372 
  CA	-1.4295344 -2.0333838 -1.7764325 
  CA	-0.3061744 -0.29755676 -0.8000025 
  CA	0.6465838 0.31651172 -1.6958436 
  CA	1.124317 1.4807864 -0.884212 
  CA	0.97550106 2.671207 -1.2701979 
  CA	1.835201 1.1892642 0.27405128 
  CA	1.3648678 0.28369048 1.3414723 
  CA	-0.090773754 0.38593644 1.838537 
  CA	-0.5660236 1.4213855 2.3610065 
  CA	-1.0010333 -0.58784026 1.3949881 
  CA	-0.65657467 -1.2864006 0.14403929 
  CA	-0.36460578 -0.24338678 -0.9140531 
  CA	-1.2193316 0.63167804 -1.0264007 
  CA	0.9964132 0.04686984 -1.127916 
  CA	1.494168 0.9691867 -0.073307805 
  CA	0.43988222 1.3899164 0.9799794 
  CA	-0.24323466 2.4136124 0.8524804 
  CA	0.04926897 0.37916672 1.8403466 
  CA	-1.0320506 -0.47657877 1.4282651 
  CA	-1.4261687 -0.4088946 -0.0875535 
  CA	-1.2858344 0.5907011 -0.8368161 
  CA	1.1193877 0.06284346 -1.1856122 
  CA	1.3387632 0.50925773 -2.3512375 
  CA	-0.7661912 -1.5184019 -0.7011921 
  CA	0.63138926 -1.362912 -1.0873753 
40
 generated by JK
  CA	1.969273 1.5885334 2.827824 
  CA	2.2851446 2.0435266 1.4733217 
  CA	1.9693737 1.1605392 0.26088926 
  CA	2.7223682 0.1814105 0.073135406 
  CA	1.0852926 1.4294109 -0.7622519 
  CA	0.17979655 0.47873515 -1.4016881 
  CA	-1.2527206 0.61311316 -0.9310178 
  CA	-2.0919244 1.5019507 -1.3838902 
  CA	-1.5544221 -0.40361917 -0.033119526 
  CA	-1.0871816 -0.6347012 1.3331127 
  CA	-1.5049427 -2.0796876 1.5746857 
  CA	-2.6581783 -2.417778 1.8938844 
  CA	-0.65968597 -3.0269513 1.0655868 
  CA	0.12029606 -2.548687 -0.04544023 
  CA	-0.7458324 -1.5766795 -0.82291204 
  CA	-1.4295748 -2.0331602 -1.7760596 
  CA	-0.30645415 -0.29769772 -0.79989576 
  CA	0.64659005 0.31701756 -1.6953354 
  CA	1.1244425 1.4810439 -0.8841705 
  CA	0.9753363 2.6710944 -1.2706609 
  CA	1.8360208 1.189312 0.2737298 
  CA	1.364653 0.2836092 1.3414825 
  CA	-0.09058673 0.3857829 1.8385694 
  CA	-0.56594497 1.4214652 2.360712 
  CA	-1.0010347 -0.58777124 1.3949199 
  CA	-0.6563282 -1.2873408 0.14434132 
  CA	-0.365308 -0.24382052 -0.9137496 
  CA	-1.2194638 0.6318491 -1.0266969 
  CA	0.99684733 0.047158033 -1.1278684 
  CA	1.4943229 0.96939176 -0.07271363 
  CA	0.4397508 1.3899453 0.98051417 
  CA	-0.2428334 2.4134426 0.8531404 
  CA	0.049245708 0.37943035 1.8400466 
  CA	-1.0329285 -0.47677445 1.4283662 
  CA	-1.4263535 -0.4088382 -0.08727941 
  CA	-1.2860956 0.59060854 -0.8369498 
  CA	1.1195121 0.06276951 -1.1863388 
  CA	1.3394549 0.5092598 -2.3508854 
  CA	-0.7666157 -1.5181037 -0.70068395 
  CA	0.63145924 -1.3629855 -1.0875784 
40
 generated by JK
  CA	1.9698237 1.5906239 2.830645 
  CA	2.287207 2.0451436 1.4754404 
  CA	1.9719713 1.1623784 0.26110208 
  CA	2.7273812 0.18113732 0.07252203 
  CA	1.086558 1.431334 -0.7630329 
  CA	0.18058293 0.4787621 -1.4033135 
  CA	-1.2546469 0.61386615 -0.93198925 
  CA	-2.0928514 1.5033591 -1.385798 
  CA	-1.5558662 -0.40354759 -0.033718374 
  CA	-1.088876 -0.635079 1.3338922 
  CA	-1.5069216 -2.0814219 1.5759372 
  CA	-2.660767 -2.4202204 1.8953426 
  CA	-0.66034234 -3.0299084 1.066821 
  CA	0.120621145 -2.5513244 -0.046413437 
  CA	-0.74670726 -1.5785848 -0.8247819 
  CA	-1.431235 -2.03535 -1.7785606 
  CA	-0.30759186 -0.29821038 -0.80089647 
  CA	0.64662576 0.31749326 -1.697621 
  CA	1.1254514 1.4826725 -0.88569957 
  CA	0.9753933 2.673753 -1.2715431 
  CA	1.8385721 1.1907208 0.27416456 
  CA	1.3660501 0.2847466 1.3428336 
  CA	-0.09150455 0.38627055 1.8401484 
  CA	-0.56643593 1.4229585 2.362524 
  CA	-1.0021998 -0.5878011 1.3968468 
  CA	-0.6576046 -1.287255 0.14336005 
  CA	-0.36557072 -0.24424353 -0.91514087 
  CA	-1.2202499 0.63279265 -1.0273238 
  CA	0.9978662 0.04614991 -1.1281359 
  CA	1.4966803 0.9699572 -0.07216067 
  CA	0.44024724 1.3915586 0.9803748 
  CA	-0.24303505 2.4153616 0.85264313 
  CA	0.048877947 0.37977207 1.8421435 
  CA	-1.0334498 -0.47781837 1.4294089 
  CA	-1.4279492 -0.40906507 -0.086927265 
  CA	-1.2873735 0.5904488 -0.8376045 
  CA	1.1211541 0.06287926 -1.1869868 
  CA	1.3404002 0.51023066 -2.3540854 
  CA	-0.76722974 -1.51949 -0.7020619 
  CA	0.63215756 -1.3658377 -1.0888759 
40
 generated by JK
  CA	1.9680429 1.5877422 2.8272905 
  CA	2.285238 2.0419464 1.473 
  CA	1.9691452 1.1603122 0.26119205 
  CA	2.721755 0.18149696 0.07304576 
  CA	1.0851285 1.4287041 -0.7623509 
  CA	0.17976706 0.47793943 -1.4012436 
  CA	-1.2525792 0.6127901 -0.93113554 
  CA	-2.0912025 1.5020926 -1.3831421 
  CA	-1.5540061 -0.40330118 -0.033224806 
  CA	-1.086786 -0.63449824 1.3329227 
  CA	-1.5044134 -2.0793257 1.5746932 
  CA	-2.6569393 -2.4171312 1.8934422 
  CA	-0.6596578 -3.025779 1.0655613 
  CA	0.120494604 -2.5483468 -0.045522332 
  CA	-0.7453127 -1.5763077 -0.8228921 
  CA	-1.4294059 -2.0324354 -1.7757044 
  CA	-0.30624133 -0.29747096 -0.7998044 
  CA	0.64658797 0.31662822 -1.695295 
  CA	1.1241453 1.4802815 -0.8839176 
  CA	0.97525024 2.6698017 -1.2698592 
  CA	1.8353846 1.1893877 0.27372277 
  CA	1.3651855 0.28357407 1.3418894 
  CA	-0.09067119 0.38575 1.8380623 
  CA	-0.56572187 1.4208478 2.3595624 
  CA	-1.0008194 -0.5873005 1.3948575 
  CA	-0.6567564 -1.2865479 0.14421608 
  CA	-0.36460698 -0.2432442 -0.9137279 
  CA	-1.2195352 0.6316837 -1.026755 
  CA	0.9962736 0.047125842 -1.1273998 
  CA	1.494022 0.96965086 -0.07241561 
  CA	0.4394107 1.3895297 0.9801041 
  CA	-0.2433917 2.413092 0.85290444 
  CA	0.049221538 0.37936926 1.8398957 
  CA	-1.0324299 -0.4765436 1.4275756 
  CA	-1.4260876 -0.4085617 -0.0873504 
  CA	-1.2859682 0.5904269 -0.83693445 
  CA	1.1193562 0.062309287 -1.186225 
  CA	1.3385963 0.509424 -2.3504758 
  CA	-0.76581246 -1.517808 -0.7001078 
  CA	0.63093877 -1.3627163 -1.0874594 
40
 generated by JK
  CA	1.9697084 1.5907986 2.8300848 
  CA	2.2871575 2.0446544 1.4745445 
  CA	1.9713905 1.161526 0.26135403 
  CA	2.7256904 0.18086027 0.072641626 
  CA	1.085876 1.4303687 -0.7630446 
  CA	0.17975445 0.47821465 -1.4023359 
  CA	-1.2540028 0.6135026 -0.93183625 
  CA	-2.0925145 1.5025268 -1.3852129 
  CA	-1.5550597 -0.40332437 -0.03313867 
  CA	-1.0882661 -0.63487554 1.3337262 
  CA	-1.5058888 -2.0809813 1.5761014 
  CA	-2.66004 -2.419292 1.8954675 
  CA	-0.66013557 -3.028359 1.0654049 
  CA	0.120209515 -2.550189 -0.045893162 
  CA	-0.74581736 -1.5773255 -0.8242626 
  CA	-1.4308145 -2.0340896 -1.7782335 
  CA	-0.30659962 -0.29726326 -0.80023456 
  CA	0.6466179 0.31704384 -1.697057 
  CA	1.125461 1.481943 -0.8853113 
  CA	0.97574544 2.6724207 -1.2707239 
  CA	1.836863 1.1902859 0.27414456 
  CA	1.365403 0.28426763 1.342453 
  CA	-0.09120054 0.3856629 1.8397789 
  CA	-0.5669677 1.4225751 2.3618798 
  CA	-1.0018944 -0.58740115 1.3960528 
  CA	-0.6566477 -1.2867428 0.14375047 
  CA	-0.3646161 -0.24358858 -0.9147186 
  CA	-1.2200531 0.6324647 -1.026863 
  CA	0.9970242 0.046682563 -1.1277438 
  CA	1.495593 0.9698053 -0.07280211 
  CA	0.44052362 1.3910611 0.97985387 
  CA	-0.24305609 2.4147182 0.8524724 
  CA	0.049305588 0.37958765 1.841506 
  CA	-1.0328524 -0.47776896 1.4292783 
  CA	-1.4274577 -0.40856016 -0.087234125 
  CA	-1.2869374 0.59078115 -0.83726525 
  CA	1.1206197 0.06252162 -1.1861187 
  CA	1.3398377 0.50989634 -2.3527417 
  CA	-0.7665956 -1.5189784 -0.70179427 
  CA	0.6313086 -1.3643599 -1.088238 
40
 generated by JK
  CA	1.9656646 1.5879173 2.8308253 
  CA	2.2874002 2.0407994 1.4762472 
  CA	1.9712863 1.1636529 0.26142702 
  CA	2.7264178 0.18240441 0.07127261 
  CA	1.0866256 1.4288659 -0.7635236 
  CA	0.18039116 0.4767978 -1.402089 
  CA	-1.2553035 0.61243427 -0.9327752 
  CA	-2.090459 1.5043128 -1.3829168 
  CA	-1.5556123 -0.4015274 -0.03405208 
  CA	-1.0885608 -0.63447493 1.334144 
  CA	-1.5055104 -2.0803738 1.5765339 
  CA	-2.657391 -2.4175255 1.8913858 
  CA	-0.6616297 -3.0273142 1.0673287 
  CA	0.12143387 -2.5523362 -0.04795479 
  CA	-0.74546 -1.57736 -0.82476497 
  CA	-1.4315561 -2.0323615 -1.777534 
  CA	-0.3077607 -0.29752702 -0.8006095 
  CA	0.64536 0.3169062 -1.6982315 
  CA	1.1258359 1.4810035 -0.885367 
  CA	0.97340393 2.6694217 -1.2683316 
  CA	1.8383603 1.1919916 0.27389607 
  CA	1.3673795 0.2856815 1.3439944 
  CA	-0.09125245 0.38571286 1.83922 
  CA	-0.5664334 1.4210222 2.3574612 
  CA	-1.0019472 -0.586512 1.3971803 
  CA	-0.659207 -1.2863343 0.14287284 
  CA	-0.36453474 -0.24346069 -0.91507185 
  CA	-1.2210288 0.63440037 -1.0283524 
  CA	0.99688125 0.04572854 -1.1252457 
  CA	1.4964992 0.9702435 -0.06936466 
  CA	0.43947154 1.3911316 0.9800629 
  CA	-0.24450168 2.4136472 0.8528128 
  CA	0.048440307 0.38034916 1.8415525 
  CA	-1.033654 -0.47835457 1.4274373 
  CA	-1.4274201 -0.4072575 -0.085953444 
  CA	-1.2879049 0.5895574 -0.8377385 
  CA	1.1216706 0.061666835 -1.1882505 
  CA	1.3385357 0.51082075 -2.3529036 
  CA	-0.7650157 -1.5175868 -0.699571 
  CA	0.6305367 -1.3659586 -1.0895592 
40
 generated by JK
  CA	1.969147 1.5905575 2.831458 
  CA	2.2876506 2.04414 1.4760954 
  CA	1.9720575 1.1626625 0.26122558 
  CA	2.7271507 0.18171866 0.07229782 
  CA	1.0868354 1.4306505 -0.76349735 
  CA	0.1801764 0.4783657 -1.403415 
  CA	-1.2549324 0.613543 -0.93226296 
  CA	-2.0927181 1.5038478 -1.3852972 
  CA	-1.5563519 -0.40306944 -0.033565454 
  CA	-1.0888233 -0.63508564 1.3342913 
  CA	-1.5067723 -2.0817232 1.5766361 
  CA	-2.6599507 -2.4196856 1.8947048 
  CA	-0.6608832 -3.029451 1.0669947 
  CA	0.12111637 -2.552033 -0.046655085 
  CA	-0.74617535 -1.5782324 -0.82456577 
  CA	-1.4313817 -2.0348608 -1.7786479 
  CA	-0.3076272 -0.297953 -0.80094945 
  CA	0.64635444 0.31730342 -1.6983484 
  CA	1.1257153 1.4822637 -0.88543 
  CA	0.975268 2.6729522 -1.2706023 
  CA	1.8386127 1.1912512 0.27398074 
  CA	1.366618 0.28466114 1.343411 
  CA	-0.09132809 0.38596934 1.8400707 
  CA	-0.5665817 1.4225907 2.3611612 
  CA	-1.0022671 -0.5874651 1.3969941 
  CA	-0.6582959 -1.2870951 0.1433961 
  CA	-0.3653996 -0.24376482 -0.91525316 
  CA	-1.220863 0.6334541 -1.0277219 
  CA	0.9975944 0.04610223 -1.1275386 
  CA	1.4966599 0.96993786 -0.07125202 
  CA	0.44016302 1.3917255 0.9808168 
  CA	-0.24359044 2.415215 0.85298425 
  CA	0.04890771 0.38011277 1.842263 
  CA	-1.0338452 -0.47808522 1.4289019 
  CA	-1.4280473 -0.4083327 -0.086488254 
  CA	-1.2881094 0.5906414 -0.8378236 
  CA	1.1212146 0.062283494 -1.1876879 
  CA	1.3403716 0.5105182 -2.3539028 
  CA	-0.7666031 -1.5192622 -0.70133865 
  CA	0.63154376 -1.365597 -1.0889093 
40
 generated by JK
  CA	1.969237 1.5911639 2.8325543 
  CA	2.288319 2.0446393 1.4769433 
  CA	1.9725798 1.1633136 0.2613397 
  CA	2.7284627 0.18181576 0.07173416 
  CA	1.087003 1.4304827 -0.7637932 
  CA	0.17991552 0.47819963 -1.4030952 
  CA	-1.2555559 0.6134259 -0.9326781 
  CA	-2.092884 1.5042193 -1.3850592 
  CA	-1.5564327 -0.4024586 -0.03350773 
  CA	-1.0894058 -0.63495404 1.334796 
  CA	-1.5069818 -2.0819445 1.5774269 
  CA	-2.6604085 -2.4197745 1.8942778 
  CA	-0.66131014 -3.029929 1.0666091 
  CA	0.12100047 -2.553081 -0.046847045 
  CA	-0.74617547 -1.578026 -0.8252922 
  CA	-1.4321382 -2.0344436 -1.7791841 
  CA	-0.30776578 -0.29744446 -0.8007646 
  CA	0.64588916 0.31749666 -1.6987652 
  CA	1.1264515 1.4827424 -0.8860394 
  CA	0.97476196 2.672461 -1.2701591 
  CA	1.838821 1.1916726 0.27422914 
  CA	1.3669074 0.2852521 1.3437203 
  CA	-0.09125791 0.3856524 1.8407247 
  CA	-0.56740016 1.4228078 2.361033 
  CA	-1.0026029 -0.5874424 1.3971064 
  CA	-0.657846 -1.2873343 0.14338039 
  CA	-0.36502957 -0.24414897 -0.91539073 
  CA	-1.2211833 0.63423985 -1.0278492 
  CA	0.99763155 0.045820966 -1.1266196 
  CA	1.4971633 0.969894 -0.070873186 
  CA	0.44050348 1.3924007 0.98082227 
  CA	-0.24358433 2.415563 0.8528764 
  CA	0.04891796 0.3804443 1.8426771 
  CA	-1.0340248 -0.47842437 1.4292938 
  CA	-1.4284451 -0.4078431 -0.08628986 
  CA	-1.288511 0.5906077 -0.8380414 
  CA	1.1219527 0.06225291 -1.188111 
  CA	1.3402576 0.5104898 -2.3544693 
  CA	-0.7664748 -1.519047 -0.7012663 
  CA	0.63141567 -1.366088 -1.0893664 
40
 generated by JK
  CA	1.9708693 1.5913025 2.831509 
  CA	2.287936 2.0450912 1.4752781 
  CA	1.9722188 1.1617162 0.26120505 
  CA	2.726718 0.18152013 0.073032424 
  CA	1.0867237 1.4311278 -0.76363075 
  CA	0.17993549 0.47888213 -1.4034672 
  CA	-1.2545552 0.61371195 -0.9321353 
  CA	-2.09409 1.5036142 -1.3856959 
  CA	-1.5560398 -0.40393162 -0.03318041 
  CA	-1.0885615 -0.6351949 1.3341677 
  CA	-1.5070308 -2.0821111 1.5766392 
  CA	-2.6609972 -2.4204946 1.8964849 
  CA	-0.6604719 -3.0300174 1.0666516 
  CA	0.12072113 -2.5516558 -0.045685403 
  CA	-0.7463036 -1.5781747 -0.824329 
  CA	-1.4312491 -2.035594 -1.7789094 
  CA	-0.30670387 -0.29781765 -0.8009035 
  CA	0.6472002 0.3173399 -1.6978521 
  CA	1.1257257 1.4826759 -0.88539386 
  CA	0.97669446 2.6738164 -1.2717804 
  CA	1.8380214 1.190942 0.27424622 
  CA	1.3663381 0.28404483 1.343298 
  CA	-0.09140579 0.38593215 1.8405883 
  CA	-0.56665295 1.4232494 2.3627336 
  CA	-1.0023806 -0.5875161 1.3969269 
  CA	-0.6574954 -1.2873185 0.14409485 
  CA	-0.36527497 -0.2437288 -0.9149834 
  CA	-1.220874 0.63236994 -1.0273893 
  CA	0.9976654 0.0467832 -1.1285813 
  CA	1.4961718 0.97037023 -0.07249049 
  CA	0.44033068 1.3917189 0.9809146 
  CA	-0.24304247 2.4159403 0.8534071 
  CA	0.04935743 0.3798139 1.8423622 
  CA	-1.0337905 -0.4776557 1.4295009 
  CA	-1.4280689 -0.40888363 -0.087066606 
  CA	-1.2878337 0.59104854 -0.8379054 
  CA	1.1209173 0.062317543 -1.1870449 
  CA	1.3411102 0.5103989 -2.353699 
  CA	-0.76704854 -1.5199027 -0.7019824 
  CA	0.63179517 -1.364911 -1.0885884 
40
 generated by JK
  CA	1.9699506 1.5903249 2.828279 
  CA	2.2856467 2.0449846 1.4729927 
  CA	1.9701791 1.1602101 0.2612195 
  CA	2.723954 0.18052812 0.07315597 
  CA	1.0851092 1.4301105 -0.76232326 
  CA	0.17980938 0.47818902 -1.4018815 
  CA	-1.2527423 0.6137791 -0.9310934 
  CA	-2.0924723 1.501692 -1.3853343 
  CA	-1.5542059 -0.4039924 -0.033104684 
  CA	-1.0874366 -0.6345905 1.3331956 
  CA	-1.5054086 -2.080267 1.5750495 
  CA	-2.65947 -2.4190137 1.8959565 
  CA	-0.6590309 -3.0276399 1.0652757 
  CA	0.12000319 -2.5486352 -0.044920027 
  CA	-0.74614626 -1.5768806 -0.82354206 
  CA	-1.4299424 -2.033993 -1.7772815 
  CA	-0.30637154 -0.29745927 -0.79988927 
  CA	0.64718294 0.31698963 -1.6954706 
  CA	1.1242361 1.4815491 -0.8846597 
  CA	0.97616756 2.6720424 -1.2715932 
  CA	1.8359514 1.189036 0.27406657 
  CA	1.364906 0.28330788 1.3420203 
  CA	-0.091125496 0.38595498 1.8391125 
  CA	-0.5662812 1.4224088 2.3625636 
  CA	-1.0012739 -0.5876406 1.3950943 
  CA	-0.65562737 -1.2870703 0.1443818 
  CA	-0.364609 -0.24390778 -0.91388166 
  CA	-1.2195623 0.6312003 -1.026541 
  CA	0.9969922 0.046909086 -1.1284503 
  CA	1.494802 0.96983117 -0.07383942 
  CA	0.44014555 1.3900712 0.9796387 
  CA	-0.24233323 2.4144287 0.8524575 
  CA	0.04950461 0.37929636 1.8409381 
  CA	-1.0322514 -0.4768542 1.4289984 
  CA	-1.4267874 -0.40941423 -0.0877425 
  CA	-1.286301 0.59099066 -0.8370408 
  CA	1.1197964 0.06288773 -1.1855621 
  CA	1.3396113 0.5094506 -2.3517807 
  CA	-0.76702374 -1.5189705 -0.7018751 
  CA	0.6315877 -1.3632067 -1.0874531 
40
 generated by JK
  CA	1.970091 1.590961 2.8273096 
  CA	2.2852602 2.0454974 1.4727678 
  CA	1.9699863 1.1594132 0.26115942 
  CA	2.723335 0.18002847 0.07302454 
  CA	1.0846689 1.4300325 -0.7621286 
  CA	0.17946327 0.4784948 -1.4016407 
  CA	-1.2523202 0.6139016 -0.9303944 
  CA	-2.0920763 1.500843 -1.3857183 
  CA	-1.5537202 -0.40407544 -0.03280365 
  CA	-1.0875058 -0.63482535 1.332414 
  CA	-1.5052392 -2.0799432 1.5744246 
  CA	-2.6594815 -2.4186866 1.8961515 
  CA	-0.6586882 -3.0270042 1.0636518 
  CA	0.11980508 -2.547247 -0.04477774 
  CA	-0.74560845 -1.5765125 -0.8234505 
  CA	-1.429401 -2.0339026 -1.7771418 
  CA	-0.30608767 -0.29720688 -0.799616 
  CA	0.64675975 0.31680053 -1.6952131 
  CA	1.1241379 1.4813175 -0.8844671 
  CA	0.9761462 2.6722956 -1.2711436 
  CA	1.8344891 1.1882601 0.27425587 
  CA	1.3636911 0.28328007 1.3407071 
  CA	-0.09087417 0.38575342 1.8386917 
  CA	-0.56659836 1.4222275 2.3629174 
  CA	-1.0011008 -0.5880612 1.3942589 
  CA	-0.6550266 -1.2864358 0.1441119 
  CA	-0.36435306 -0.2437005 -0.9137398 
  CA	-1.2188233 0.63103974 -1.0254966 
  CA	0.9966287 0.046896867 -1.128426 
  CA	1.4938929 0.96848637 -0.0748174 
  CA	0.4404176 1.3899176 0.97934747 
  CA	-0.2422921 2.4136324 0.85185385 
  CA	0.04967772 0.37888122 1.8403912 
  CA	-1.0314614 -0.47669536 1.4293116 
  CA	-1.4264796 -0.4092753 -0.087893516 
  CA	-1.2857149 0.591256 -0.8364649 
  CA	1.1190708 0.063257605 -1.1844901 
  CA	1.3394899 0.5088535 -2.3512666 
  CA	-0.7669494 -1.5187236 -0.70257246 
  CA	0.63168955 -1.3624113 -1.0867236 
40
 generated by JK
  CA	1.969696 1.58978 2.8294435 
  CA	2.286806 2.044524 1.4735882 
  CA	1.9708003 1.1610659 0.2612713 
  CA	2.7249527 0.18090421 0.072957665 
  CA	1.0857725 1.430342 -0.7626869 
  CA	0.18010728 0.47816563 -1.4023917 
  CA	-1.25347 0.6137834 -0.93185157 
  CA	-2.092957 1.5027966 -1.3849368 
  CA	-1.5547922 -0.40388405 -0.033247523 
  CA	-1.0876396 -0.63488483 1.3337303 
  CA	-1.5058228 -2.08101 1.5758568 
  CA	-2.6599183 -2.4196692 1.895957 
  CA	-0.65956306 -3.0287066 1.0659797 
  CA	0.12008467 -2.5501676 -0.045381863 
  CA	-0.74629796 -1.5776916 -0.8239574 
  CA	-1.4307201 -2.0344996 -1.7777104 
  CA	-0.30662107 -0.2976869 -0.8003166 
  CA	0.6471847 0.31677848 -1.6964699 
  CA	1.1248235 1.4819021 -0.884898 
  CA	0.97598827 2.6724584 -1.27141 
  CA	1.8368945 1.1899853 0.2742836 
  CA	1.3659352 0.2839307 1.3428583 
  CA	-0.091346346 0.38614628 1.8398397 
  CA	-0.56644416 1.4225405 2.3626623 
  CA	-1.0016227 -0.5879972 1.3958496 
  CA	-0.65635854 -1.2874211 0.14439051 
  CA	-0.36480653 -0.24398248 -0.91454315 
  CA	-1.2201843 0.6318811 -1.0272542 
  CA	0.99708945 0.04693613 -1.1283416 
  CA	1.495614 0.9704648 -0.07313926 
  CA	0.4401725 1.3906777 0.98030245 
  CA	-0.24285468 2.4152658 0.8528724 
  CA	0.04929675 0.37943643 1.841593 
  CA	-1.0327793 -0.47691894 1.4292104 
  CA	-1.4270864 -0.4092946 -0.087601915 
  CA	-1.2865089 0.5909303 -0.8376348 
  CA	1.1205612 0.062798455 -1.1864059 
  CA	1.33932 0.5097644 -2.3526561 
  CA	-0.7667166 -1.5193657 -0.7014694 
  CA	0.63163745 -1.3639917 -1.0883735 
40
 generated by JK
  CA	1.968068 1.5894626 2.831829 
  CA	2.2880683 2.0429535 1.4764887 
  CA	1.9722196 1.1635829 0.26135302 
  CA	2.7277453 0.18193789 0.071884036 
  CA	1.0869828 1.430304 -0.76346064 
  CA	0.18053809 0.4779064 -1.4031346 
  CA	-1.2552333 0.6132951 -0.9329151 
  CA	-2.092239 1.504714 -1.3843261 
  CA	-1.5564384 -0.40242934 -0.033829007 
  CA	-1.0887687 -0.6346645 1.3347702 
  CA	-1.5065899 -2.0814738 1.5770608 
  CA	-2.6592894 -2.4196303 1.8937826 
  CA	-0.66121554 -3.029346 1.0679464 
  CA	0.12120046 -2.5528984 -0.04710301 
  CA	-0.7463751 -1.5786077 -0.8250521 
  CA	-1.4319371 -2.034407 -1.7785711 
  CA	-0.30795386 -0.2978689 -0.8010127 
  CA	0.6462476 0.31722385 -1.6985604 
  CA	1.1257945 1.4820997 -0.8857662 
  CA	0.9745002 2.671749 -1.2701446 
  CA	1.8395171 1.191977 0.2738451 
  CA	1.3677509 0.2852296 1.3443005 
  CA	-0.091485076 0.38606352 1.8404069 
  CA	-0.5665136 1.4222937 2.3602724 
  CA	-1.0022063 -0.5870975 1.3975132 
  CA	-0.65883726 -1.2872145 0.14335456 
  CA	-0.3651544 -0.24390976 -0.9156059 
  CA	-1.2211384 0.6340112 -1.0285031 
  CA	0.9974708 0.045774437 -1.126798 
  CA	1.4974083 0.9708559 -0.07010232 
  CA	0.43990588 1.3918271 0.9807939 
  CA	-0.24409395 2.4154012 0.8527834 
  CA	0.048597317 0.3803082 1.8424408 
  CA	-1.0338188 -0.4780801 1.4283826 
  CA	-1.4282124 -0.4080069 -0.08637269 
  CA	-1.2880487 0.5901581 -0.83826065 
  CA	1.122061 0.061939057 -1.188572 
  CA	1.3394146 0.51088154 -2.354361 
  CA	-0.7660748 -1.5190533 -0.70054346 
  CA	0.6312438 -1.3663887 -1.0897273 
40
 generated by JK
  CA	1.9703882 1.5907655 2.829237 
  CA	2.2859943 2.0452867 1.4747403 
  CA	1.9705448 1.1611527 0.26095456 
  CA	2.7243097 0.18115191 0.07280644 
  CA	1.0855328 1.4298011 -0.76263094 
  CA	0.17936842 0.4789741 -1.4020221 
  CA	-1.2534335 0.6134423 -0.93108976 
  CA	-2.0926764 1.5019491 -1.3849579 
  CA	-1.5549936 -0.40326327 -0.032853454 
  CA	-1.0881708 -0.63479453 1.3335478 
  CA	-1.5054704 -2.0803702 1.5755883 
  CA	-2.6594522 -2.4183567 1.8945761 
  CA	-0.65983295 -3.0277915 1.0649476 
  CA	0.12027231 -2.5494566 -0.045419652 
  CA	-0.7459448 -1.5766257 -0.82373273 
  CA	-1.4302859 -2.0335221 -1.7773807 
  CA	-0.30669275 -0.2973246 -0.7999168 
  CA	0.64618576 0.3175246 -1.6960882 
  CA	1.1252613 1.4818074 -0.8849452 
  CA	0.9756732 2.6718106 -1.2707726 
  CA	1.8363528 1.1895751 0.2738545 
  CA	1.3646418 0.2837122 1.3414865 
  CA	-0.090496995 0.38560832 1.8394825 
  CA	-0.56672364 1.4222838 2.3615727 
  CA	-1.0014964 -0.5876796 1.3952041 
  CA	-0.6558528 -1.2874544 0.14413555 
  CA	-0.36497885 -0.24408229 -0.91384757 
  CA	-1.2197187 0.6322994 -1.026686 
  CA	0.99724793 0.046649333 -1.1276039 
  CA	1.4948785 0.9687891 -0.07292224 
  CA	0.44042128 1.3909881 0.98032355 
  CA	-0.2426126 2.4140873 0.8528415 
  CA	0.049318705 0.37977755 1.8407388 
  CA	-1.0330623 -0.47760653 1.4293529 
  CA	-1.4271834 -0.40851432 -0.087040745 
  CA	-1.2870322 0.59114283 -0.8370291 
  CA	1.120056 0.062693 -1.1865609 
  CA	1.3403112 0.50926304 -2.351679 
  CA	-0.76689357 -1.518265 -0.70131224 
  CA	0.6314094 -1.3634264 -1.0874828 
40
 generated by JK
  CA	1.9685628 1.5906357 2.8310022 
  CA	2.2870917 2.044807 1.4753826 
  CA	1.9718596 1.162605 0.26126558 
  CA	2.7280722 0.18104559 0.07177514 
  CA	1.0864216 1.4308324 -0.7632561 
  CA	0.18052323 0.47777966 -1.4030852 
  CA	-1.2549138 0.6138907 -0.9321939 
  CA	-2.0922945 1.5033519 -1.3857158 
  CA	-1.5557914 -0.40311587 -0.03389427 
  CA	-1.088871 -0.6347978 1.334075 
  CA	-1.5067844 -2.081289 1.576172 
  CA	-2.66039 -2.4202075 1.8950014 
  CA	-0.6603112 -3.0298142 1.0670354 
  CA	0.1206937 -2.5517755 -0.04679588 
  CA	-0.74677557 -1.578286 -0.824814 
  CA	-1.4316571 -2.0349631 -1.7788861 
  CA	-0.30789423 -0.29788396 -0.80078983 
  CA	0.64634407 0.31710827 -1.6979243 
  CA	1.1254324 1.482566 -0.885681 
  CA	0.9749148 2.6728773 -1.27118 
  CA	1.8388247 1.1907313 0.27420288 
  CA	1.3666186 0.28504822 1.3436003 
  CA	-0.09176958 0.38611388 1.8400443 
  CA	-0.5666044 1.4228194 2.3619206 
  CA	-1.002208 -0.5874494 1.3969889 
  CA	-0.6575689 -1.2868953 0.14327726 
  CA	-0.36506712 -0.24434204 -0.91525686 
  CA	-1.2205551 0.6331996 -1.02765 
  CA	0.99775326 0.045772728 -1.1272982 
  CA	1.4970273 0.9703014 -0.07178591 
  CA	0.44022912 1.3912795 0.97988904 
  CA	-0.24291524 2.4150474 0.8524443 
  CA	0.048848405 0.3798322 1.8422933 
  CA	-1.0332592 -0.47796756 1.4290836 
  CA	-1.4280074 -0.40872395 -0.086810715 
  CA	-1.2875597 0.5904318 -0.83777905 
  CA	1.1215373 0.06270104 -1.1868703 
  CA	1.3400369 0.5106346 -2.3541882 
  CA	-0.76679903 -1.5193988 -0.70219946 
  CA	0.6316238 -1.3658122 -1.0892253 
40
 generated by JK
  CA	1.9680736 1.5886409 2.8272095 
  CA	2.285115 2.043273 1.4728514 
  CA	1.9694959 1.1603127 0.26109254 
  CA	2.7232041 0.18069503 0.072612725 
  CA	1.0849578 1.4293482 -0.76226056 
  CA	0.18013926 0.47791305 -1.4014306 
  CA	-1.2527502 0.6133856 -0.9310139 
  CA	-2.0913453 1.5017807 -1.3840312 
  CA	-1.5537763 -0.40358096 -0.03342649 
  CA	-1.0871041 -0.634466 1.3326297 
  CA	-1.5048572 -2.0793939 1.574461 
  CA	-2.6580162 -2.4180808 1.8943858 
  CA	-0.6591524 -3.0267036 1.0653412 
  CA	0.120198846 -2.5483074 -0.045586336 
  CA	-0.74593747 -1.5766677 -0.8234132 
  CA	-1.4297478 -2.033225 -1.7763917 
  CA	-0.306611 -0.29752934 -0.7998412 
  CA	0.6466178 0.3165183 -1.695267 
  CA	1.1240369 1.4809163 -0.8843099 
  CA	0.9752662 2.670741 -1.2705802 
  CA	1.8356107 1.1889365 0.27403346 
  CA	1.3649848 0.28392363 1.3418257 
  CA	-0.09114487 0.3859681 1.8384557 
  CA	-0.56589526 1.4213964 2.3610296 
  CA	-1.0009639 -0.587619 1.3949662 
  CA	-0.6561135 -1.286373 0.14400151 
  CA	-0.36453384 -0.24383073 -0.9138895 
  CA	-1.2192177 0.6314647 -1.0264938 
  CA	0.996573 0.046816662 -1.1275471 
  CA	1.4944597 0.96952885 -0.07318064 
  CA	0.4396717 1.3895764 0.9795365 
  CA	-0.2427364 2.4132237 0.8523109 
  CA	0.04924874 0.37906742 1.8401835 
  CA	-1.031839 -0.47658718 1.4282985 
  CA	-1.4263196 -0.40900427 -0.0875662 
  CA	-1.2855843 0.5905535 -0.83694696 
  CA	1.1196593 0.06281342 -1.1855011 
  CA	1.3387258 0.509523 -2.3511035 
  CA	-0.76619834 -1.5182061 -0.7012583 
  CA	0.6312665 -1.3630533 -1.0877361 
