40
 generated by JK
  CA	4.0115623 -1.89298 -3.0557313 
  CA	3.786811 -0.5158545 -2.7587073 
  CA	4.5401773 -0.10558084 -1.526078 
  CA	4.528546 1.0713344 -1.159974 
  CA	4.9395895 -1.0584865 -0.6586573 
  CA	5.2520065 -0.6515788 0.676188 
  CA	4.1234446 0.09095596 1.2703004 
  CA	4.318468 0.7164012 2.306107 
  CA	2.9045582 -0.41599563 1.0109752 
  CA	2.3980134 -0.2524964 -0.3125359 
  CA	0.97602975 0.14669892 -0.18608987 
  CA	0.3290148 0.5382161 -1.157554 
  CA	0.4176056 -0.13145493 0.98793674 
  CA	1.236674 -0.5260785 2.093751 
  CA	0.52829707 -0.05363438 3.2979844 
  CA	0.99088097 -0.18978184 4.4450684 
  CA	-0.42848694 0.8445101 3.025387 
  CA	-0.8733301 1.6178592 4.1350374 
  CA	0.36591017 2.2620227 4.6483593 
  CA	0.44469 2.8524961 5.71327 
  CA	1.4542086 1.9952403 3.885373 
  CA	1.2023911 1.0916368 2.7956038 
  CA	-0.16210064 1.4338907 2.2578175 
  CA	-0.22912206 2.1451466 1.2540513 
  CA	-1.2117342 0.669299 2.6408055 
  CA	-2.3354356 0.43346694 1.8094895 
  CA	-3.3090591 -0.49215528 2.467843 
  CA	-3.4054184 -0.4213884 3.7112107 
  CA	-4.424098 -0.5822766 1.7541273 
  CA	-5.0978837 0.65412223 1.8849858 
  CA	-4.012303 1.6794287 2.1890464 
  CA	-4.0381813 2.285975 3.2535331 
  CA	-3.3181846 2.172234 1.1578624 
  CA	-2.7133367 3.4695187 1.0348682 
  CA	-2.3874645 4.216865 2.292227 
  CA	-1.3483646 4.8514895 2.3987122 
  CA	-2.688807 6.532895 4.0047855 
  CA	-1.8349987 7.018539 4.728435 
  CA	-3.4145844 4.400633 3.1525095 
  CA	-3.3276253 5.246343 4.3228545 
40
 generated by JK
  CA	4.010304 -1.895888 -3.0587807 
  CA	3.782579 -0.5203484 -2.7615535 
  CA	4.536562 -0.10991368 -1.5265062 
  CA	4.5248904 1.0670557 -1.1640354 
  CA	4.9307747 -1.0608974 -0.660724 
  CA	5.244849 -0.6516739 0.67370105 
  CA	4.113024 0.08999698 1.2723192 
  CA	4.3041534 0.71087056 2.3138032 
  CA	2.9003706 -0.4172388 1.0141782 
  CA	2.3918428 -0.25307587 -0.30832213 
  CA	0.97217095 0.1456529 -0.18480763 
  CA	0.32601714 0.53704995 -1.1539543 
  CA	0.41346598 -0.1373186 0.9881679 
  CA	1.2333863 -0.5345813 2.0895498 
  CA	0.5291755 -0.06019619 3.2957423 
  CA	0.99065363 -0.19014585 4.4399557 
  CA	-0.4257148 0.8392703 3.0213265 
  CA	-0.86664146 1.6171591 4.1350374 
  CA	0.3710173 2.255694 4.6475606 
  CA	0.45421344 2.8455646 5.7111006 
  CA	1.4593973 1.9877774 3.8811398 
  CA	1.2028618 1.0869126 2.7935128 
  CA	-0.162521 1.4292893 2.2542126 
  CA	-0.2308241 2.1422577 1.254217 
  CA	-1.2119588 0.6647636 2.6381667 
  CA	-2.3349912 0.43117842 1.812873 
  CA	-3.3094232 -0.48858222 2.4692369 
  CA	-3.4029121 -0.42076665 3.7095482 
  CA	-4.4286757 -0.58190376 1.7538568 
  CA	-5.1001506 0.6517701 1.8839535 
  CA	-4.009123 1.6821853 2.1897998 
  CA	-4.0330825 2.2906892 3.2536004 
  CA	-3.3174274 2.1718967 1.1561102 
  CA	-2.707024 3.470753 1.0368586 
  CA	-2.3856986 4.218516 2.295622 
  CA	-1.3441546 4.853028 2.404946 
  CA	-2.6801164 6.5341873 4.007819 
  CA	-1.8240625 7.022758 4.731823 
  CA	-3.4130049 4.402037 3.1545272 
  CA	-3.3237348 5.2432632 4.3307 
40
 generated by JK
  CA	4.003253 -1.9049561 -3.0535681 
  CA	3.7813215 -0.5266019 -2.7601721 
  CA	4.5375967 -0.11485544 -1.5284148 
  CA	4.5324616 1.0611922 -1.1627614 
  CA	4.936574 -1.0670362 -0.6645614 
  CA	5.254255 -0.6576992 0.66636574 
  CA	4.1183157 0.08716525 1.2610253 
  CA	4.3124437 0.71251273 2.3060212 
  CA	2.8985426 -0.4257033 1.0037456 
  CA	2.3896832 -0.2597089 -0.32046258 
  CA	0.9707687 0.14027222 -0.18985644 
  CA	0.31992033 0.5338165 -1.1596022 
  CA	0.4115817 -0.14423482 0.98580444 
  CA	1.2372272 -0.5330296 2.0920138 
  CA	0.52112776 -0.056141514 3.291076 
  CA	0.98497534 -0.19474638 4.438927 
  CA	-0.4319834 0.8431252 3.0193844 
  CA	-0.88037974 1.6178507 4.1310463 
  CA	0.36205387 2.261127 4.6400404 
  CA	0.44790626 2.8537745 5.7029285 
  CA	1.4451025 1.9898659 3.8822677 
  CA	1.1942321 1.0883415 2.7996855 
  CA	-0.16858867 1.431566 2.2579875 
  CA	-0.23809807 2.1480842 1.2539277 
  CA	-1.2166722 0.6706658 2.6421382 
  CA	-2.3386757 0.4342034 1.8077096 
  CA	-3.3102014 -0.49253097 2.4679542 
  CA	-3.4054112 -0.4266904 3.7065065 
  CA	-4.4282937 -0.58264637 1.7523078 
  CA	-5.1088753 0.65237206 1.8847861 
  CA	-4.0217614 1.6762139 2.1938033 
  CA	-4.044509 2.2850788 3.2631862 
  CA	-3.3264334 2.1729698 1.1521219 
  CA	-2.724833 3.473163 1.0289992 
  CA	-2.401556 4.225068 2.2906306 
  CA	-1.3602641 4.8596334 2.399805 
  CA	-2.7009692 6.5424557 3.9990623 
  CA	-1.8459798 7.0339737 4.727794 
  CA	-3.4273493 4.4053493 3.1506605 
  CA	-3.3376431 5.2462735 4.325761 
40
 generated by JK
  CA	4.0085535 -1.8983119 -3.0491323 
  CA	3.7871456 -0.52562916 -2.755386 
  CA	4.5339193 -0.11770651 -1.5278192 
  CA	4.5253325 1.0583624 -1.1639781 
  CA	4.9350653 -1.0719334 -0.6674301 
  CA	5.246497 -0.6650485 0.66856015 
  CA	4.115356 0.08493449 1.2632878 
  CA	4.309993 0.7126574 2.2989373 
  CA	2.8982635 -0.42564553 1.0027851 
  CA	2.391141 -0.25537303 -0.3205265 
  CA	0.97399926 0.14213057 -0.18996012 
  CA	0.3248096 0.53614897 -1.1601942 
  CA	0.41295725 -0.13755055 0.984475 
  CA	1.2322712 -0.5298117 2.090615 
  CA	0.5266436 -0.054583054 3.292923 
  CA	0.9932823 -0.19301003 4.437949 
  CA	-0.42643803 0.8456711 3.0215688 
  CA	-0.8775193 1.6197289 4.131079 
  CA	0.36438397 2.262158 4.6412396 
  CA	0.44285047 2.8516045 5.701167 
  CA	1.4479303 1.9915684 3.8803608 
  CA	1.1949719 1.0875703 2.7969456 
  CA	-0.16291806 1.4354017 2.2606378 
  CA	-0.23133431 2.1514213 1.2568631 
  CA	-1.2091283 0.6717639 2.639333 
  CA	-2.3269155 0.43334466 1.8094773 
  CA	-3.298794 -0.48963484 2.4680264 
  CA	-3.3929663 -0.42298645 3.7071507 
  CA	-4.409957 -0.5777402 1.75119 
  CA	-5.086861 0.6558827 1.8837622 
  CA	-4.006483 1.6812798 2.1878664 
  CA	-4.0328875 2.2878122 3.2551062 
  CA	-3.3134227 2.1681182 1.1531379 
  CA	-2.7109027 3.4641554 1.0319594 
  CA	-2.3899572 4.218239 2.2868166 
  CA	-1.3522646 4.849311 2.3936331 
  CA	-2.6942058 6.533673 3.9890478 
  CA	-1.8391676 7.022063 4.7132673 
  CA	-3.4209945 4.402486 3.1432886 
  CA	-3.3320754 5.248745 4.3122864 
40
 generated by JK
  CA	3.992145 -1.9308586 -3.047271 
  CA	3.777624 -0.55067456 -2.754458 
  CA	4.5391345 -0.12598655 -1.5219141 
  CA	4.5421953 1.0533204 -1.1450258 
  CA	4.944638 -1.0760144 -0.6588367 
  CA	5.270385 -0.65829784 0.66060483 
  CA	4.1199183 0.09172098 1.2610337 
  CA	4.316428 0.7193659 2.3113606 
  CA	2.8958766 -0.42646515 1.0053757 
  CA	2.380455 -0.25909606 -0.321132 
  CA	0.96961296 0.1392684 -0.19342762 
  CA	0.310213 0.53846115 -1.1562868 
  CA	0.4112204 -0.15325783 0.98639 
  CA	1.2433486 -0.5376968 2.0944543 
  CA	0.5193565 -0.05891549 3.2953496 
  CA	0.98313534 -0.20042267 4.445373 
  CA	-0.43448937 0.8380408 3.0209227 
  CA	-0.8866307 1.6158484 4.12964 
  CA	0.3612819 2.2698214 4.6454735 
  CA	0.45194936 2.8613818 5.709548 
  CA	1.4325399 1.9923233 3.8928657 
  CA	1.1742553 1.0913132 2.8135555 
  CA	-0.18454963 1.4307946 2.2623675 
  CA	-0.25431043 2.1472185 1.2509962 
  CA	-1.2346514 0.6682537 2.6489074 
  CA	-2.3532743 0.42511085 1.8032937 
  CA	-3.325088 -0.5094684 2.468195 
  CA	-3.4208484 -0.4404264 3.7102687 
  CA	-4.445135 -0.5948688 1.7531528 
  CA	-5.1342773 0.64722824 1.8838195 
  CA	-4.0460095 1.6703212 2.1969318 
  CA	-4.067416 2.2785394 3.2752547 
  CA	-3.3416493 2.1760468 1.1516343 
  CA	-2.7442932 3.4839363 1.0232283 
  CA	-2.4133744 4.236245 2.2841868 
  CA	-1.3652136 4.8673654 2.3894203 
  CA	-2.7145941 6.5670786 3.9975343 
  CA	-1.8508874 7.0613647 4.7317915 
  CA	-3.4423246 4.419518 3.1507807 
  CA	-3.3517814 5.26075 4.3336067 
40
 generated by JK
  CA	3.9990678 -1.9055269 -3.058705 
  CA	3.7785435 -0.52933145 -2.7642288 
  CA	4.5398316 -0.11251506 -1.5296175 
  CA	4.5373783 1.0647739 -1.1615202 
  CA	4.9415736 -1.0666523 -0.6652912 
  CA	5.258592 -0.653975 0.6619506 
  CA	4.118757 0.08989267 1.2584994 
  CA	4.31162 0.71442413 2.307645 
  CA	2.898286 -0.42508763 1.0014443 
  CA	2.3853066 -0.2624652 -0.32208577 
  CA	0.9679543 0.1413012 -0.19095778 
  CA	0.3142927 0.53662115 -1.1598413 
  CA	0.4061879 -0.14755692 0.98703694 
  CA	1.2333506 -0.53468186 2.0904608 
  CA	0.5163983 -0.059034187 3.2917 
  CA	0.976341 -0.19495529 4.436592 
  CA	-0.43375117 0.8392624 3.0197375 
  CA	-0.8809583 1.6167909 4.1300287 
  CA	0.3609427 2.2612197 4.637432 
  CA	0.451845 2.850797 5.699141 
  CA	1.4436274 1.9899594 3.8829138 
  CA	1.1893542 1.0848945 2.8008657 
  CA	-0.16977462 1.4314663 2.2533178 
  CA	-0.23757078 2.1463497 1.25088 
  CA	-1.2191927 0.6682713 2.6389384 
  CA	-2.3436723 0.4343784 1.8071645 
  CA	-3.3145754 -0.49442902 2.4641824 
  CA	-3.4124894 -0.4299932 3.6993759 
  CA	-4.4347887 -0.5875586 1.7480769 
  CA	-5.121459 0.6466813 1.8833977 
  CA	-4.0310235 1.6723648 2.1966896 
  CA	-4.049231 2.2812421 3.2652664 
  CA	-3.333211 2.171936 1.1556836 
  CA	-2.728473 3.473365 1.030145 
  CA	-2.4067323 4.226344 2.291984 
  CA	-1.3639084 4.860887 2.4007726 
  CA	-2.7057903 6.540345 4.0016475 
  CA	-1.8498836 7.03266 4.733918 
  CA	-3.4323707 4.399801 3.153855 
  CA	-3.34125 5.2376437 4.333124 
40
 generated by JK
  CA	4.0043726 -1.8938375 -3.0564737 
  CA	3.782394 -0.5206547 -2.7631896 
  CA	4.5459685 -0.10820523 -1.5312537 
  CA	4.542213 1.0720583 -1.1649684 
  CA	4.9471817 -1.0632051 -0.66847646 
  CA	5.2560635 -0.6523481 0.6586398 
  CA	4.1216974 0.0914125 1.2521433 
  CA	4.3150206 0.71609837 2.2918339 
  CA	2.900334 -0.42527077 0.98919994 
  CA	2.3871183 -0.26021096 -0.3293332 
  CA	0.9692962 0.14672424 -0.19795471 
  CA	0.31629035 0.54223865 -1.165579 
  CA	0.40487397 -0.13838615 0.98161185 
  CA	1.2297647 -0.52849466 2.0895948 
  CA	0.51741964 -0.05512587 3.2906516 
  CA	0.9769652 -0.1960327 4.4368215 
  CA	-0.4337517 0.8420904 3.0154316 
  CA	-0.88361377 1.6162549 4.1194215 
  CA	0.3514252 2.260299 4.6299663 
  CA	0.43841732 2.848275 5.6922975 
  CA	1.4375782 1.9910113 3.8733542 
  CA	1.185085 1.0816402 2.7947438 
  CA	-0.1682029 1.4266952 2.2537038 
  CA	-0.23721258 2.1379094 1.2536899 
  CA	-1.2118815 0.6589754 2.6392765 
  CA	-2.3351808 0.4225233 1.8097287 
  CA	-3.3110416 -0.5020527 2.4658592 
  CA	-3.4096556 -0.4313501 3.7043557 
  CA	-4.4276915 -0.591901 1.7517667 
  CA	-5.109583 0.6409987 1.8908814 
  CA	-4.02242 1.6665895 2.1987157 
  CA	-4.0460687 2.2749193 3.264562 
  CA	-3.3185575 2.1633155 1.161734 
  CA	-2.7148879 3.4642944 1.0440154 
  CA	-2.397702 4.219276 2.3026168 
  CA	-1.359889 4.8518877 2.40727 
  CA	-2.7071116 6.5286093 4.006456 
  CA	-1.8555907 7.0184064 4.735491 
  CA	-3.4261775 4.393986 3.1596217 
  CA	-3.3413944 5.2330203 4.3357077 
40
 generated by JK
  CA	3.9971015 -1.9007596 -3.0445416 
  CA	3.7802052 -0.5277147 -2.750935 
  CA	4.5420113 -0.11171043 -1.5250572 
  CA	4.5386243 1.0661402 -1.1603717 
  CA	4.9452443 -1.0656778 -0.6645888 
  CA	5.2520676 -0.6551523 0.65489185 
  CA	4.1160617 0.08789833 1.2486271 
  CA	4.3116527 0.71393895 2.2897458 
  CA	2.8934677 -0.42947325 0.98694414 
  CA	2.3810005 -0.26642498 -0.33485302 
  CA	0.9648249 0.14285435 -0.20370221 
  CA	0.30839598 0.5423113 -1.1688675 
  CA	0.40108877 -0.1419623 0.9787178 
  CA	1.2255143 -0.52673256 2.0852075 
  CA	0.51319087 -0.059457377 3.2871242 
  CA	0.9695072 -0.19968441 4.431124 
  CA	-0.4369567 0.8383759 3.0122461 
  CA	-0.8860754 1.6131418 4.111045 
  CA	0.34626427 2.2596455 4.624788 
  CA	0.4334151 2.8483365 5.6830063 
  CA	1.4275632 1.9910475 3.8734906 
  CA	1.1702833 1.0858566 2.7961018 
  CA	-0.1770406 1.4268013 2.252035 
  CA	-0.24795212 2.1374717 1.2509439 
  CA	-1.2208761 0.66021675 2.636995 
  CA	-2.339245 0.4191023 1.805395 
  CA	-3.3150318 -0.5065581 2.4646392 
  CA	-3.414281 -0.43390805 3.7071235 
  CA	-4.428239 -0.5963241 1.7523047 
  CA	-5.1147337 0.6381325 1.8888278 
  CA	-4.0312405 1.6648507 2.198285 
  CA	-4.0521135 2.2752416 3.2645047 
  CA	-3.321259 2.1643674 1.1647859 
  CA	-2.7210083 3.4675093 1.0426836 
  CA	-2.399658 4.2210293 2.2985828 
  CA	-1.3619275 4.848801 2.4062548 
  CA	-2.712471 6.5306983 4.004942 
  CA	-1.8625113 7.016662 4.7350116 
  CA	-3.431009 4.396162 3.160328 
  CA	-3.346853 5.2350597 4.3403997 
40
 generated by JK
  CA	3.9912133 -1.9118562 -3.0526946 
  CA	3.7770562 -0.5389439 -2.7579823 
  CA	4.543651 -0.1169149 -1.528824 
  CA	4.5453753 1.0608428 -1.15336 
  CA	4.947011 -1.0676641 -0.665151 
  CA	5.266097 -0.65172017 0.65297055 
  CA	4.1184516 0.09471889 1.2506081 
  CA	4.3151255 0.72280765 2.2934155 
  CA	2.8946533 -0.4263652 0.9931396 
  CA	2.3780813 -0.25987086 -0.330124 
  CA	0.9654256 0.14625208 -0.19951406 
  CA	0.3057644 0.5442724 -1.1616359 
  CA	0.40437728 -0.146886 0.98437023 
  CA	1.2354541 -0.5299817 2.0904717 
  CA	0.5127063 -0.053568505 3.2877994 
  CA	0.9738064 -0.19913587 4.4361377 
  CA	-0.4378549 0.84272116 3.0132084 
  CA	-0.8952723 1.6163651 4.115762 
  CA	0.34867412 2.2663164 4.632171 
  CA	0.4415896 2.8566658 5.6966004 
  CA	1.4224195 1.9883353 3.881537 
  CA	1.1688526 1.0796512 2.8028822 
  CA	-0.18197894 1.420638 2.2547038 
  CA	-0.24914096 2.1342447 1.2489955 
  CA	-1.2263515 0.65844256 2.641947 
  CA	-2.3476195 0.41753852 1.8037037 
  CA	-3.3192685 -0.5154981 2.4649892 
  CA	-3.4210896 -0.4451065 3.7058718 
  CA	-4.4385524 -0.59978676 1.7511562 
  CA	-5.1268587 0.6379033 1.8858407 
  CA	-4.038249 1.6596906 2.1975038 
  CA	-4.062019 2.2665558 3.271543 
  CA	-3.330507 2.1624503 1.1570675 
  CA	-2.732499 3.4676807 1.033986 
  CA	-2.409471 4.223012 2.293641 
  CA	-1.3704615 4.8528957 2.4006662 
  CA	-2.7154489 6.5390706 4.0034046 
  CA	-1.8618842 7.0358667 4.735235 
  CA	-3.4360833 4.3970027 3.1578937 
  CA	-3.3500485 5.2341504 4.338183 
40
 generated by JK
  CA	3.9951832 -1.9103018 -3.052689 
  CA	3.7745957 -0.5353706 -2.7593977 
  CA	4.539587 -0.11809716 -1.5273186 
  CA	4.538235 1.0594584 -1.157297 
  CA	4.940915 -1.0686603 -0.6645467 
  CA	5.260773 -0.65559924 0.66032946 
  CA	4.115712 0.091426626 1.2565609 
  CA	4.309749 0.71469903 2.2992277 
  CA	2.8982527 -0.42665875 0.99927276 
  CA	2.3843398 -0.2559891 -0.320047 
  CA	0.9709939 0.14568439 -0.19633847 
  CA	0.3167068 0.53920954 -1.1589047 
  CA	0.40670708 -0.14471205 0.9794264 
  CA	1.2347959 -0.5347438 2.0852857 
  CA	0.5212294 -0.059311725 3.2852664 
  CA	0.9843923 -0.19864115 4.4309926 
  CA	-0.43263417 0.8388471 3.0124025 
  CA	-0.88193476 1.6180905 4.121096 
  CA	0.3602613 2.2629058 4.634863 
  CA	0.45093215 2.8547614 5.698432 
  CA	1.4374809 1.9871823 3.877121 
  CA	1.1804123 1.0778242 2.7996113 
  CA	-0.17460108 1.4211508 2.2566152 
  CA	-0.24470855 2.1368217 1.2542573 
  CA	-1.2216036 0.65708274 2.640787 
  CA	-2.343368 0.4204887 1.8073019 
  CA	-3.316235 -0.5046955 2.467438 
  CA	-3.4124465 -0.43413985 3.7072861 
  CA	-4.4360566 -0.59092855 1.7538428 
  CA	-5.120155 0.64729834 1.8885087 
  CA	-4.0289254 1.6731141 2.1984086 
  CA	-4.054354 2.284286 3.2683606 
  CA	-3.3244736 2.170999 1.1578325 
  CA	-2.7222252 3.472852 1.038532 
  CA	-2.4005415 4.225506 2.2967274 
  CA	-1.3583298 4.8588543 2.4004636 
  CA	-2.7001812 6.5434127 4.0027456 
  CA	-1.8423707 7.0371556 4.7323155 
  CA	-3.4267766 4.4025464 3.1552777 
  CA	-3.337945 5.242033 4.336092 
