40
 generated by JK
  CA	-0.14370991 -6.065085 0.8522594 
  CA	0.10216248 -5.1123343 0.5702046 
  CA	-0.95207375 -4.47737 1.4268063 
  CA	-1.0214167 -4.8720255 2.588572 
  CA	-1.5577483 -3.609631 0.7995426 
  CA	-2.1653876 -2.5914474 1.4147843 
  CA	-2.1815615 -1.2153246 1.2195733 
  CA	-1.3011667 -0.71264267 0.91433597 
  CA	-2.5880609 -0.594421 2.1996365 
  CA	-2.3453283 0.7412669 1.8036381 
  CA	-2.3353684 1.7750077 2.597097 
  CA	-2.718962 1.8025867 3.7103143 
  CA	-1.6042353 1.0505164 2.1492105 
  CA	-1.4169004 1.0253122 3.4577622 
  CA	-0.6310191 2.1367044 2.7587419 
  CA	0.4894479 1.6985681 2.9775293 
  CA	-0.83150196 2.077241 1.2643594 
  CA	0.13666373 1.2994573 1.0325514 
  CA	1.4887431 1.6082504 0.93409055 
  CA	2.543813 1.0866357 1.6795901 
  CA	1.104456 2.5920644 0.02172587 
  CA	1.5771966 3.8418436 0.10207024 
  CA	0.85687834 4.609783 0.90815043 
  CA	0.3550675 4.480665 1.8391509 
  CA	1.7690234 4.9374866 1.4353882 
  CA	1.530338 4.3509026 2.5522842 
  CA	2.8434227 4.220461 2.7479758 
  CA	3.222047 4.0553718 3.8810906 
  CA	3.325367 3.888046 1.5428159 
  CA	4.1463933 3.0468817 1.8813853 
  CA	5.1621733 4.0289326 1.8177137 
  CA	5.9015684 3.9942064 2.7741556 
  CA	4.64864 5.029242 1.0858268 
  CA	5.5795727 6.008162 1.0975415 
  CA	4.8467474 7.1793847 1.0308828 
  CA	5.5527725 7.988632 1.1873147 
  CA	3.1518617 8.93159 2.0068069 
  CA	3.738434 9.767525 2.7478766 
  CA	4.0397787 7.2182326 1.7437296 
  CA	4.1861687 8.04748 2.283536 
40
 generated by JK
  CA	-0.6464592 -6.147401 0.9531179 
  CA	-0.41429514 -5.094865 0.59478277 
  CA	-1.453083 -4.4246845 1.4222912 
  CA	-1.5557401 -4.827653 2.5527039 
  CA	-2.0236976 -3.4562542 0.808405 
  CA	-2.5844717 -2.3895752 1.4825907 
  CA	-2.5676687 -0.98286295 1.2658535 
  CA	-1.7133235 -0.46900427 0.7952466 
  CA	-2.9204352 -0.33466074 2.2685728 
  CA	-2.6853719 1.0349762 1.9421254 
  CA	-2.5661888 2.0785782 2.7825754 
  CA	-2.9947402 2.1571777 3.911919 
  CA	-1.7269195 1.344212 2.4412596 
  CA	-1.5195892 1.4023266 3.6686141 
  CA	-0.6950088 2.4221804 2.9262543 
  CA	0.43656245 1.9523286 3.218726 
  CA	-0.8082962 2.2629383 1.492212 
  CA	0.2501728 1.4243379 1.2264633 
  CA	1.649327 1.7014532 1.1040989 
  CA	2.6675856 1.2587031 1.8651397 
  CA	1.315202 2.6779854 0.1955818 
  CA	1.7357773 3.990253 0.28003395 
  CA	0.99309105 4.78185 1.135561 
  CA	0.45548892 4.6410317 2.1350696 
  CA	1.9356512 5.0720963 1.6742052 
  CA	1.8328938 4.4819765 2.8292518 
  CA	3.2133317 4.3042097 3.0301092 
  CA	3.5806005 4.1238356 4.168512 
  CA	3.8316927 3.931235 1.8840091 
  CA	4.8095517 3.1180804 2.2023687 
  CA	5.8118105 4.1060443 2.109683 
  CA	6.626457 4.041901 3.0108824 
  CA	5.3549285 5.100675 1.35305 
  CA	6.264331 6.085711 1.314077 
  CA	5.577635 7.3326883 1.2997997 
  CA	6.323658 8.174438 1.4355459 
  CA	3.956374 9.290429 2.3742125 
  CA	4.4783564 10.1174 3.1340299 
  CA	4.7783737 7.414536 2.1091094 
  CA	4.9873238 8.357932 2.7039504 
40
 generated by JK
  CA	-1.4045314 -6.217921 0.702206 
  CA	-1.2122674 -5.0627694 0.2205085 
  CA	-2.1828926 -4.3052964 1.0182742 
  CA	-2.3265834 -4.721391 2.1226978 
  CA	-2.6674218 -3.1777053 0.4731431 
  CA	-3.1588035 -2.0661356 1.2355802 
  CA	-3.0929406 -0.6182877 1.036925 
  CA	-2.294647 -0.107077196 0.37316686 
  CA	-3.3603928 0.090953484 2.0868008 
  CA	-3.1480896 1.4956722 1.8769685 
  CA	-2.8939917 2.4648044 2.8251474 
  CA	-3.354966 2.6261008 3.9530282 
  CA	-1.9225878 1.7937585 2.6268456 
  CA	-1.6701527 1.9687278 3.8121934 
  CA	-0.7788904 2.8209846 3.0597165 
  CA	0.2584918 2.2725852 3.4490774 
  CA	-0.7161133 2.573833 1.7274067 
  CA	0.4230317 1.6546006 1.4924107 
  CA	1.8744862 1.8759123 1.3220552 
  CA	2.8388758 1.5221415 2.0993168 
  CA	1.66392 2.8748038 0.46459025 
  CA	1.9928012 4.2094345 0.63278913 
  CA	1.2782109 5.0046167 1.6106081 
  CA	0.69805646 4.857393 2.6376698 
  CA	2.2681105 5.260513 2.1520426 
  CA	2.3446417 4.6397038 3.3446994 
  CA	3.7817867 4.3898726 3.5881941 
  CA	4.103932 4.1862645 4.7344637 
  CA	4.5649047 3.9515302 2.5570054 
  CA	5.6991405 3.187753 2.8753648 
  CA	6.710627 4.1532307 2.750978 
  CA	7.6114683 4.027522 3.5182128 
  CA	6.376447 5.202214 2.0140493 
  CA	7.261663 6.183005 1.9294794 
  CA	6.688634 7.4951673 2.0321372 
  CA	7.481983 8.350446 2.069827 
  CA	5.2644854 9.777872 3.251848 
  CA	5.632738 10.577561 4.0204797 
  CA	5.9565353 7.672582 2.9670932 
  CA	6.2275534 8.768843 3.603271 
40
 generated by JK
  CA	-1.8909928 -6.300912 0.29221424 
  CA	-1.7187266 -5.094918 -0.26390654 
  CA	-2.620432 -4.2536073 0.54081917 
  CA	-2.7992175 -4.6873727 1.6441482 
  CA	-3.047161 -3.0326285 0.05275196 
  CA	-3.5013566 -1.8938692 0.87807566 
  CA	-3.4181924 -0.39127454 0.7234921 
  CA	-2.6558068 0.10409184 -0.04253152 
  CA	-3.6265721 0.34089994 1.8031702 
  CA	-3.4380693 1.7571003 1.6881686 
  CA	-3.1035159 2.6752658 2.7068424 
  CA	-3.5820572 2.8907475 3.831346 
  CA	-2.0775151 2.0877593 2.5886774 
  CA	-1.8011534 2.328002 3.7802422 
  CA	-0.8448662 3.060441 3.0756676 
  CA	0.10289997 2.4561884 3.5178573 
  CA	-0.65286624 2.8002784 1.7948935 
  CA	0.5193387 1.8306565 1.6052741 
  CA	2.0150151 2.0180094 1.4188892 
  CA	2.9625287 1.6914607 2.2162883 
  CA	1.8931109 3.0316756 0.6207009 
  CA	2.1622536 4.367774 0.8896599 
  CA	1.4913405 5.1613526 1.9668027 
  CA	0.8795198 4.9906526 2.9957914 
  CA	2.5195103 5.3900547 2.538642 
  CA	2.6703076 4.7318974 3.746953 
  CA	4.143596 4.4389725 4.036703 
  CA	4.4287853 4.2403326 5.198346 
  CA	4.996125 3.9564908 3.0718563 
  CA	6.198989 3.2559454 3.4144502 
  CA	7.2427387 4.204894 3.2711778 
  CA	8.183632 4.0260286 3.9365573 
  CA	6.973572 5.2981877 2.5657494 
  CA	7.8773518 6.2972274 2.4642518 
  CA	7.4060764 7.6443186 2.67802 
  CA	8.193462 8.484864 2.6238673 
  CA	6.1184483 10.1370735 3.9802876 
  CA	6.3744526 10.934024 4.768424 
  CA	6.723271 7.8983445 3.6610248 
  CA	7.027398 9.054034 4.3212094 
40
 generated by JK
  CA	-2.4898267 -6.6044083 -0.29170352 
  CA	-2.3437238 -5.3187513 -0.9358842 
  CA	-3.1770155 -4.3620496 -0.09073761 
  CA	-3.3665106 -4.7839775 1.0463933 
  CA	-3.5192351 -2.9986482 -0.52208567 
  CA	-3.960754 -1.8039439 0.3862507 
  CA	-3.8581069 -0.22207507 0.29677618 
  CA	-3.1277504 0.25272548 -0.56815827 
  CA	-4.016239 0.5792873 1.4344174 
  CA	-3.8219264 2.0141582 1.4093819 
  CA	-3.4242675 2.887447 2.532924 
  CA	-3.9034555 3.1342216 3.6662583 
  CA	-2.3230886 2.4071593 2.4918246 
  CA	-1.9953661 2.7407131 3.7323358 
  CA	-0.93665403 3.355943 3.0841994 
  CA	-0.12702201 2.6867783 3.578184 
  CA	-0.58200324 3.0822453 1.8406104 
  CA	0.63898015 2.0722432 1.7102844 
  CA	2.1869895 2.2159014 1.5024917 
  CA	3.1428072 1.8985496 2.318446 
  CA	2.1572127 3.2903206 0.76592064 
  CA	2.3707192 4.6186795 1.1965003 
  CA	1.7599463 5.3845944 2.4145076 
  CA	1.105447 5.1833634 3.4429367 
  CA	2.8393073 5.6085277 3.024293 
  CA	3.0757148 4.909649 4.2638793 
  CA	4.5817986 4.546296 4.592599 
  CA	4.8204556 4.3584256 5.793861 
  CA	5.4874015 4.0246897 3.6609247 
  CA	6.7472444 3.3830552 4.055979 
  CA	7.863599 4.337827 3.8800867 
  CA	8.869519 4.0759473 4.4177437 
  CA	7.6518483 5.5208836 3.239376 
  CA	8.619162 6.557024 3.1104233 
  CA	8.275786 7.953951 3.4379473 
  CA	9.05282 8.768517 3.2608335 
  CA	7.1240826 10.725009 4.839684 
  CA	7.220622 11.529604 5.6737704 
  CA	7.651773 8.317219 4.4910846 
  CA	7.9711404 9.547413 5.183055 
40
 generated by JK
  CA	-3.5246413 -6.8281026 -1.7010896 
  CA	-3.4284015 -5.4602194 -2.4685743 
  CA	-4.0874853 -4.2900333 -1.5329298 
  CA	-4.3294044 -4.729295 -0.37064654 
  CA	-4.263383 -2.7272615 -1.815304 
  CA	-4.661852 -1.492408 -0.7591892 
  CA	-4.5361376 0.24151361 -0.7034939 
  CA	-3.8854759 0.64828044 -1.7253798 
  CA	-4.582733 1.1051437 0.5061283 
  CA	-4.392526 2.5232956 0.7055148 
  CA	-3.9067068 3.2273176 2.0000677 
  CA	-4.372003 3.5618098 3.1062021 
  CA	-2.7057984 2.9960093 2.1117542 
  CA	-2.3167272 3.468385 3.4472282 
  CA	-1.0348516 3.820596 2.9924598 
  CA	-0.533715 3.0237603 3.5690634 
  CA	-0.37496242 3.5861926 1.8186579 
  CA	0.90434337 2.5144176 1.8768815 
  CA	2.517806 2.5951645 1.6274683 
  CA	3.4400854 2.2832181 2.468587 
  CA	2.6923118 3.7435708 1.096979 
  CA	2.8002706 4.991797 1.8377881 
  CA	2.3613627 5.72474 3.3085136 
  CA	1.634824 5.4533997 4.30746 
  CA	3.500445 5.9228983 4.0178995 
  CA	3.8605504 5.115105 5.2752347 
  CA	5.411335 4.634838 5.720649 
  CA	5.5229516 4.4623747 6.94646 
  CA	6.348439 4.0058327 4.8901744 
  CA	7.6426315 3.5496483 5.398623 
  CA	8.912406 4.4699225 5.1631646 
  CA	9.961852 4.041488 5.43657 
  CA	8.81635 5.79556 4.6993732 
  CA	9.912342 6.850466 4.5497527 
  CA	9.833971 8.282155 5.118574 
  CA	10.554366 8.995528 4.6862917 
  CA	8.993344 11.505681 6.689246 
  CA	8.793422 12.3338 7.5637903 
  CA	9.346493 8.880508 6.2761636 
  CA	9.699409 10.161236 6.981571 
40
 generated by JK
  CA	-3.9618518 -6.9007673 -2.3717504 
  CA	-3.8763475 -5.4991975 -3.1836889 
  CA	-4.457706 -4.2335124 -2.203812 
  CA	-4.7171993 -4.6787157 -1.0174305 
  CA	-4.55243 -2.5852642 -2.4121222 
  CA	-4.942414 -1.3457367 -1.2901826 
  CA	-4.8051653 0.4564998 -1.1653599 
  CA	-4.188485 0.83447087 -2.2522304 
  CA	-4.813068 1.3472424 0.07378462 
  CA	-4.6204753 2.7423103 0.37722763 
  CA	-4.1025977 3.3660564 1.7377083 
  CA	-4.5671835 3.735038 2.8398805 
  CA	-2.8663948 3.2513828 1.9324908 
  CA	-2.4517899 3.7797623 3.313822 
  CA	-1.0625848 4.0104694 2.9497385 
  CA	-0.70185256 3.1496959 3.5563962 
  CA	-0.2656589 3.790607 1.809658 
  CA	1.03446 2.7081304 1.9470967 
  CA	2.6777112 2.7688608 1.6804359 
  CA	3.573432 2.4625556 2.5338893 
  CA	2.9403872 3.9473767 1.2507608 
  CA	3.009011 5.1601763 2.1420498 
  CA	2.6478167 5.8700156 3.7221968 
  CA	1.8852947 5.5745525 4.6963625 
  CA	3.8142555 6.063733 4.4771724 
  CA	4.226518 5.2125607 5.7372255 
  CA	5.783825 4.671795 6.2272573 
  CA	5.832209 4.501202 7.4620314 
  CA	6.724239 3.9925888 5.4504614 
  CA	8.031686 3.6154058 5.9960065 
  CA	9.360377 4.518033 5.7432766 
  CA	10.420834 4.0133 5.902608 
  CA	9.314872 5.915998 5.3622847 
  CA	10.476442 6.973409 5.217064 
  CA	10.518276 8.41185 5.8919435 
  CA	11.203632 9.079994 5.332819 
  CA	9.807821 11.827164 7.5274296 
  CA	9.480868 12.665333 8.423401 
  CA	10.07985 9.103453 7.0969443 
  CA	10.446764 10.408746 7.8022447 
40
 generated by JK
  CA	-4.544201 -6.8553286 -3.3233268 
  CA	-4.499276 -5.4221587 -4.194198 
  CA	-4.9576726 -4.0320735 -3.1360962 
  CA	-5.2374744 -4.485079 -1.9535285 
  CA	-4.926563 -2.2700477 -3.2398148 
  CA	-5.296541 -1.0466363 -2.0132163 
  CA	-5.1499863 0.83487666 -1.8093066 
  CA	-4.6025395 1.1902239 -2.9852018 
  CA	-5.110618 1.7595792 -0.52785504 
  CA	-4.897845 3.113264 -0.05707732 
  CA	-4.3596096 3.575816 1.3877211 
  CA	-4.8095984 4.001685 2.471407 
  CA	-3.0634804 3.6223962 1.7224852 
  CA	-2.6017294 4.209245 3.1521766 
  CA	-1.0484473 4.264061 2.907671 
  CA	-0.908229 3.3103533 3.5443904 
  CA	-0.04787472 4.05299 1.8200871 
  CA	1.2769969 2.9794812 2.0832863 
  CA	2.9345922 3.0271783 1.7893306 
  CA	3.7592843 2.7563243 2.6435726 
  CA	3.3374846 4.246503 1.5262499 
  CA	3.366127 5.3894153 2.610166 
  CA	3.1219199 6.0831027 4.3521442 
  CA	2.2996008 5.7502713 5.2750206 
  CA	4.3150406 6.270838 5.165338 
  CA	4.8249288 5.359667 6.4165645 
  CA	6.3625154 4.7265797 6.968818 
  CA	6.3108916 4.547818 8.187824 
  CA	7.3119226 3.9740412 6.292989 
  CA	8.621738 3.7065904 6.8791003 
  CA	10.045896 4.5603223 6.595434 
  CA	11.082468 3.9437218 6.6007776 
  CA	10.085463 6.050888 6.3534317 
  CA	11.3444195 7.0844455 6.238056 
  CA	11.534431 8.510355 7.034263 
  CA	12.176212 9.113658 6.2748566 
  CA	11.03318 12.195399 8.77868 
  CA	10.516768 13.017868 9.682414 
  CA	11.183043 9.33863 8.340644 
  CA	11.556513 10.682222 9.024 
40
 generated by JK
  CA	-5.23593 -6.3762174 -4.4507465 
  CA	-5.2390275 -4.93934 -5.3824525 
  CA	-5.547196 -3.4306931 -4.2623878 
  CA	-5.852109 -3.9141543 -3.1251335 
  CA	-5.381741 -1.5685309 -4.15702 
  CA	-5.708395 -0.43040413 -2.8072972 
  CA	-5.5319614 1.5259862 -2.5243409 
  CA	-5.1207347 1.890337 -3.8468192 
  CA	-5.429318 2.4698422 -1.239062 
  CA	-5.165506 3.737557 -0.47874555 
  CA	-4.606249 3.9169445 1.0323609 
  CA	-5.07304 4.4052153 2.079586 
  CA	-3.2192664 4.1746287 1.6026744 
  CA	-2.7042308 4.79424 3.041291 
  CA	-0.9215053 4.6208 2.8787713 
  CA	-1.0402641 3.5435696 3.5422451 
  CA	0.3536418 4.4086595 1.9042103 
  CA	1.7370504 3.347312 2.3558152 
  CA	3.359859 3.4037473 2.0247245 
  CA	4.032699 3.2265148 2.8072677 
  CA	3.945316 4.6716423 2.0411804 
  CA	3.967469 5.74104 3.303163 
  CA	3.8933523 6.4457483 5.236024 
  CA	3.0098183 6.0659313 6.0518546 
  CA	5.102151 6.6225896 6.1344333 
  CA	5.840739 5.677407 7.323444 
  CA	7.288443 4.8688297 7.9670935 
  CA	7.0809517 4.6187716 9.120093 
  CA	8.335136 3.9730072 7.49686 
  CA	9.65755 3.8565636 8.098012 
  CA	11.160724 4.6101346 7.7842813 
  CA	12.128336 3.8361807 7.5701213 
  CA	11.338314 6.2264314 7.7023454 
  CA	12.684488 7.1278324 7.6584554 
  CA	13.068362 8.491667 8.623921 
  CA	13.6172 9.044 7.5669513 
  CA	12.834509 12.495497 10.581869 
  CA	12.045551 13.211056 11.41344 
  CA	12.868191 9.484893 10.123088 
  CA	13.231917 10.867932 10.753244 
40
 generated by JK
  CA	-5.354289 -6.40952 -4.61932 
  CA	-5.3670974 -4.9574513 -5.5675936 
  CA	-5.64739 -3.4202332 -4.417112 
  CA	-5.9658203 -3.8876622 -3.294015 
  CA	-5.457474 -1.524275 -4.30782 
  CA	-5.7837863 -0.3913083 -2.9330812 
  CA	-5.6087623 1.5860397 -2.634126 
  CA	-5.2077856 1.9455756 -3.9688318 
  CA	-5.4937596 2.5428307 -1.3469907 
  CA	-5.2136717 3.7903225 -0.5473701 
  CA	-4.652575 3.9591236 0.9779949 
  CA	-5.127809 4.468343 2.028671 
  CA	-3.2593758 4.2414737 1.57221 
  CA	-2.7381005 4.882022 3.0114012 
  CA	-0.91324455 4.669068 2.8807485 
  CA	-1.0786943 3.5744536 3.5521846 
  CA	0.3912177 4.4552736 1.9065034 
  CA	1.7758698 3.3940656 2.3734174 
  CA	3.410271 3.4523146 2.050259 
  CA	4.0691605 3.2849653 2.8312168 
  CA	4.026475 4.7266045 2.0889351 
  CA	4.0347767 5.7854395 3.385372 
  CA	3.9792407 6.4867473 5.3566318 
  CA	3.0743084 6.088807 6.183665 
  CA	5.2007504 6.6535997 6.264768 
  CA	5.9464073 5.698122 7.4567795 
  CA	7.4007163 4.88198 8.10689 
  CA	7.16494 4.6337056 9.269432 
  CA	8.440251 3.9757931 7.6535306 
  CA	9.752423 3.8763475 8.26965 
  CA	11.289921 4.6341667 7.944516 
  CA	12.24303 3.8420014 7.7077613 
  CA	11.473721 6.263663 7.8820477 
  CA	12.844975 7.172261 7.8441815 
  CA	13.25046 8.534233 8.829228 
  CA	13.789402 9.083902 7.7376075 
  CA	13.053586 12.5953245 10.806366 
  CA	12.237613 13.312669 11.645128 
  CA	13.07087 9.547256 10.342543 
  CA	13.431772 10.939822 10.973625 
