40
 generated by JK
  CA	0.2240883 -1.7387849 -4.1426272 
  CA	-0.6369809 -0.6760291 -4.565553 
  CA	-0.79965013 0.08510685 -3.3303607 
  CA	-0.3164652 -0.38999704 -2.3169243 
  CA	-1.8923551 0.8479309 -3.2481382 
  CA	-2.5714083 0.7950343 -2.0484345 
  CA	-1.7063546 1.2667273 -0.9877369 
  CA	-1.5537841 0.58081913 0.031191561 
  CA	-1.4033005 2.5505376 -1.0523813 
  CA	-0.124148674 2.8115482 -1.424524 
  CA	0.69560033 1.5409398 -1.18421 
  CA	0.4422983 0.46938807 -1.7511877 
  CA	1.9153963 1.7361418 -0.6405229 
  CA	1.7938981 1.5076425 0.7154095 
  CA	3.0295193 1.9013375 1.2932192 
  CA	3.6948018 1.0425497 1.847151 
  CA	3.3788354 3.179801 1.2322321 
  CA	4.4034333 3.2763324 2.1796606 
  CA	3.5400858 2.60032 3.143608 
  CA	4.000962 1.8078159 3.95579 
  CA	2.4795575 3.2884018 3.4496672 
  CA	1.5106299 3.7853231 2.5606935 
  CA	0.45133102 3.4223323 3.5306025 
  CA	-0.1456189 4.2706103 4.2022624 
  CA	0.91248715 2.365288 4.179584 
  CA	0.09872581 1.3568428 4.7063103 
  CA	0.832478 0.1984475 4.4020376 
  CA	1.8537892 0.06614366 5.053349 
  CA	0.06697961 -0.8682962 4.2153797 
  CA	0.49246567 -1.6190232 5.302719 
  CA	1.3526477 -0.38200668 5.3494277 
  CA	1.3326433 0.25566846 4.290546 
  CA	1.2855625 0.3493349 6.4374247 
  CA	0.5337742 1.5003321 6.258573 
  CA	1.4024934 2.6177924 6.065332 
  CA	2.2060447 2.7168744 5.125892 
  CA	2.231237 5.4263015 7.7782574 
  CA	3.4474945 5.662834 7.7139363 
  CA	1.0599736 3.6091619 6.852117 
  CA	1.5689225 4.9182034 6.5487404 
40
 generated by JK
  CA	0.22325075 -1.7101432 -4.126347 
  CA	-0.6439301 -0.6513535 -4.539706 
  CA	-0.8071697 0.094444275 -3.3156986 
  CA	-0.3321188 -0.39330313 -2.2967901 
  CA	-1.8981193 0.8523939 -3.235451 
  CA	-2.580424 0.80053306 -2.0423954 
  CA	-1.7081962 1.2729478 -0.99316067 
  CA	-1.5561563 0.57944494 0.019449864 
  CA	-1.4184637 2.5548372 -1.0577366 
  CA	-0.14271757 2.8209915 -1.4175774 
  CA	0.6871705 1.5518494 -1.1790425 
  CA	0.4349379 0.48070446 -1.7412919 
  CA	1.9115818 1.740035 -0.6327816 
  CA	1.7959782 1.5077055 0.72125816 
  CA	3.0241485 1.895279 1.2996638 
  CA	3.689069 1.0313507 1.8577472 
  CA	3.372389 3.1832724 1.2341061 
  CA	4.3939857 3.282967 2.1832407 
  CA	3.539325 2.6004345 3.1508217 
  CA	3.9903436 1.8081805 3.9511852 
  CA	2.4789455 3.289651 3.4513156 
  CA	1.513782 3.7736025 2.5680203 
  CA	0.45807078 3.4023805 3.534665 
  CA	-0.13761617 4.243245 4.205814 
  CA	0.9166847 2.3491704 4.1808085 
  CA	0.09611803 1.3383533 4.70762 
  CA	0.83094186 0.18750602 4.4055624 
  CA	1.8471818 0.055645943 5.061471 
  CA	0.07527407 -0.88069504 4.22031 
  CA	0.50029886 -1.6304247 5.30505 
  CA	1.3639764 -0.3980229 5.3415623 
  CA	1.3354748 0.24161455 4.286557 
  CA	1.3005426 0.33778152 6.4298615 
  CA	0.5470065 1.4892397 6.252938 
  CA	1.4227489 2.6062746 6.049561 
  CA	2.2189445 2.7125154 5.1103992 
  CA	2.2537532 5.4192133 7.746489 
  CA	3.4757705 5.6567426 7.6843925 
  CA	1.0756905 3.5947032 6.838982 
  CA	1.594113 4.8961964 6.5219626 
40
 generated by JK
  CA	0.17857508 -1.763788 -4.1966276 
  CA	-0.6799663 -0.70005226 -4.617117 
  CA	-0.8413269 0.0746595 -3.3735554 
  CA	-0.35847196 -0.41140154 -2.3668852 
  CA	-1.9261862 0.83745885 -3.306264 
  CA	-2.6291692 0.78073925 -2.0901523 
  CA	-1.7432508 1.2477975 -1.0212549 
  CA	-1.6166492 0.56200457 0.020282302 
  CA	-1.4252768 2.5211754 -1.0898131 
  CA	-0.13297033 2.7858613 -1.46189 
  CA	0.6855472 1.5285771 -1.2035986 
  CA	0.43589413 0.46420622 -1.7759821 
  CA	1.9013696 1.731776 -0.6571934 
  CA	1.7932041 1.5024812 0.7190118 
  CA	3.0467813 1.8881263 1.3046144 
  CA	3.7223234 1.0308429 1.8622538 
  CA	3.3933015 3.1687493 1.2479879 
  CA	4.4159718 3.2596722 2.1940017 
  CA	3.5552304 2.5752943 3.1631875 
  CA	4.0227437 1.7838492 3.9890747 
  CA	2.4893425 3.2836335 3.4625394 
  CA	1.5061016 3.7897363 2.5696652 
  CA	0.43117413 3.428381 3.5159924 
  CA	-0.15495463 4.279471 4.186937 
  CA	0.8864649 2.3856251 4.1843905 
  CA	0.07357137 1.3738052 4.716867 
  CA	0.8240346 0.19722396 4.4137745 
  CA	1.8529607 0.058317006 5.0727916 
  CA	0.05424399 -0.8788875 4.2274013 
  CA	0.47655302 -1.623277 5.3290906 
  CA	1.3386233 -0.40416124 5.375962 
  CA	1.324032 0.24537683 4.320601 
  CA	1.25471 0.33284947 6.467178 
  CA	0.49100423 1.4975313 6.278427 
  CA	1.3796865 2.6409125 6.104644 
  CA	2.1785057 2.7476785 5.166844 
  CA	2.2405524 5.4755716 7.8474636 
  CA	3.467608 5.7203813 7.779949 
  CA	1.039255 3.6551619 6.909104 
  CA	1.5606838 4.958893 6.611919 
40
 generated by JK
  CA	0.18484631 -1.7603443 -4.195346 
  CA	-0.6682526 -0.6927111 -4.622092 
  CA	-0.83406484 0.073192745 -3.3832245 
  CA	-0.34908795 -0.4017237 -2.3788934 
  CA	-1.9282349 0.8432302 -3.3069947 
  CA	-2.6281996 0.78716683 -2.0879045 
  CA	-1.7507913 1.2553002 -1.0216578 
  CA	-1.6237195 0.5682835 0.024392847 
  CA	-1.4267372 2.5287328 -1.0818266 
  CA	-0.12531936 2.7905943 -1.4604331 
  CA	0.68660223 1.5392501 -1.2047864 
  CA	0.44288868 0.4748243 -1.7842636 
  CA	1.899749 1.7400054 -0.6546529 
  CA	1.7949374 1.513695 0.7122922 
  CA	3.0502536 1.8936341 1.2971998 
  CA	3.7240481 1.0379312 1.8551981 
  CA	3.3997302 3.166376 1.242275 
  CA	4.426503 3.2557137 2.1912518 
  CA	3.5563037 2.5755796 3.1616497 
  CA	4.0266724 1.7872369 3.98446 
  CA	2.4892888 3.2768502 3.4575412 
  CA	1.5008824 3.7977638 2.56679 
  CA	0.43366113 3.4350832 3.5207896 
  CA	-0.15979515 4.2883315 4.1859293 
  CA	0.8897774 2.3797872 4.184036 
  CA	0.080999695 1.3665992 4.7173033 
  CA	0.8287419 0.18940789 4.413062 
  CA	1.8659263 0.05737129 5.0748916 
  CA	0.056387655 -0.89215225 4.2288866 
  CA	0.47425205 -1.6359336 5.321747 
  CA	1.3378791 -0.41574118 5.383177 
  CA	1.3296083 0.23003992 4.3257403 
  CA	1.2500644 0.3177879 6.4697056 
  CA	0.48453134 1.482775 6.2749653 
  CA	1.3684925 2.6239336 6.103585 
  CA	2.1623619 2.727721 5.1660304 
  CA	2.23416 5.4539514 7.8405447 
  CA	3.4675097 5.702159 7.7708545 
  CA	1.026741 3.6366425 6.899049 
  CA	1.5481137 4.944226 6.6024203 
40
 generated by JK
  CA	0.13811575 -1.7888881 -4.288254 
  CA	-0.7123786 -0.72158855 -4.7043796 
  CA	-0.8631144 0.070435405 -3.4397874 
  CA	-0.36941683 -0.40422025 -2.4390194 
  CA	-1.9564878 0.83771586 -3.379782 
  CA	-2.6879911 0.7771521 -2.1350834 
  CA	-1.7757041 1.2458045 -1.0698527 
  CA	-1.678825 0.55498815 0.017868932 
  CA	-1.4305966 2.4884431 -1.1203884 
  CA	-0.10778505 2.7670965 -1.5045115 
  CA	0.69184965 1.5321302 -1.229962 
  CA	0.4594056 0.4813788 -1.8133919 
  CA	1.8895404 1.7465633 -0.6680519 
  CA	1.8000594 1.5015516 0.72073907 
  CA	3.0730639 1.8798089 1.326922 
  CA	3.761278 1.0330536 1.8952692 
  CA	3.4087584 3.1629078 1.2677833 
  CA	4.4437037 3.2469466 2.2309964 
  CA	3.5625489 2.550465 3.2141352 
  CA	4.04464 1.7616204 4.04701 
  CA	2.4957263 3.274242 3.503678 
  CA	1.4975302 3.810064 2.5843542 
  CA	0.41183898 3.4514651 3.5300918 
  CA	-0.1741132 4.2998266 4.182068 
  CA	0.86714184 2.4241064 4.2007394 
  CA	0.061019182 1.4041504 4.7671704 
  CA	0.819704 0.19769019 4.452589 
  CA	1.8601966 0.04473245 5.1115556 
  CA	0.038605444 -0.89816207 4.2513447 
  CA	0.46069568 -1.628802 5.366805 
  CA	1.3386874 -0.42654958 5.442626 
  CA	1.3254634 0.22293204 4.3916545 
  CA	1.2133958 0.30098385 6.5140123 
  CA	0.4347931 1.4953206 6.32027 
  CA	1.3347672 2.662902 6.1786404 
  CA	2.1168063 2.7698574 5.236702 
  CA	2.2516336 5.505899 7.9544477 
  CA	3.4852362 5.756708 7.8818173 
  CA	1.0011585 3.707697 6.992023 
  CA	1.5374703 5.002073 6.7146516 
40
 generated by JK
  CA	0.1388552 -1.783864 -4.2906094 
  CA	-0.7160188 -0.70765144 -4.711437 
  CA	-0.8703647 0.07174915 -3.4501634 
  CA	-0.37333703 -0.41081998 -2.4475257 
  CA	-1.9575509 0.84069556 -3.3884892 
  CA	-2.683526 0.7721769 -2.139777 
  CA	-1.7830491 1.238097 -1.0688729 
  CA	-1.6884732 0.5457321 0.023278374 
  CA	-1.4360516 2.4879432 -1.1225406 
  CA	-0.10805241 2.7690682 -1.5087955 
  CA	0.6900825 1.5254731 -1.2355568 
  CA	0.44772577 0.46692997 -1.8227977 
  CA	1.8938236 1.7394239 -0.6792419 
  CA	1.8057628 1.5083477 0.7025877 
  CA	3.0798357 1.8811866 1.3150443 
  CA	3.7641208 1.0269024 1.8771738 
  CA	3.4235926 3.172336 1.2626778 
  CA	4.4497824 3.249411 2.2293885 
  CA	3.570092 2.5583923 3.2134113 
  CA	4.047395 1.7735121 4.04889 
  CA	2.4917233 3.283343 3.4975355 
  CA	1.4981432 3.8209002 2.5815573 
  CA	0.41300556 3.460878 3.5227985 
  CA	-0.17557053 4.323531 4.178001 
  CA	0.8687154 2.4242985 4.201771 
  CA	0.049009033 1.3976202 4.7524796 
  CA	0.8147229 0.19350216 4.449836 
  CA	1.8629216 0.039566606 5.104868 
  CA	0.02711197 -0.905219 4.2549396 
  CA	0.44522756 -1.6404482 5.3722963 
  CA	1.3341688 -0.4369978 5.4402018 
  CA	1.3256307 0.22265145 4.3816648 
  CA	1.2120504 0.29014862 6.5216637 
  CA	0.43496752 1.4811008 6.3233166 
  CA	1.339083 2.6544013 6.181738 
  CA	2.126828 2.7631512 5.240032 
  CA	2.2644234 5.4998636 7.958896 
  CA	3.496892 5.748453 7.8894005 
  CA	1.0110303 3.6921225 7.004523 
  CA	1.5519247 4.9944696 6.719358 
40
 generated by JK
  CA	0.1037515 -1.8066992 -4.3241215 
  CA	-0.73657924 -0.72472054 -4.7445416 
  CA	-0.8863168 0.059886664 -3.4776163 
  CA	-0.38906515 -0.41261014 -2.4776857 
  CA	-1.9762396 0.8347879 -3.4163635 
  CA	-2.7149017 0.76645947 -2.1624682 
  CA	-1.8052871 1.2299541 -1.0882567 
  CA	-1.7221737 0.5438582 0.018443901 
  CA	-1.4417529 2.4683075 -1.136284 
  CA	-0.10172085 2.7526193 -1.5297511 
  CA	0.68548656 1.5193982 -1.2470754 
  CA	0.45283204 0.4688607 -1.8362559 
  CA	1.880301 1.7374055 -0.6792699 
  CA	1.7912501 1.5071678 0.7126588 
  CA	3.0777898 1.8760191 1.3249584 
  CA	3.7765927 1.0258878 1.8896946 
  CA	3.4269886 3.1549208 1.2707684 
  CA	4.454565 3.2303605 2.235238 
  CA	3.5742478 2.540954 3.2247825 
  CA	4.059773 1.7600049 4.0604568 
  CA	2.4924676 3.269485 3.507417 
  CA	1.4932349 3.8232384 2.5866704 
  CA	0.40027434 3.4719062 3.5168412 
  CA	-0.18517862 4.3330073 4.1642575 
  CA	0.8519295 2.4382 4.1962533 
  CA	0.03860187 1.411093 4.7542176 
  CA	0.8121631 0.19527787 4.4476776 
  CA	1.8677914 0.044451028 5.0965586 
  CA	0.021890573 -0.9107949 4.253565 
  CA	0.44252992 -1.637948 5.3790894 
  CA	1.3228217 -0.44483393 5.4612064 
  CA	1.3253115 0.21453553 4.405318 
  CA	1.1864185 0.2811308 6.5370626 
  CA	0.40435869 1.4829606 6.3279595 
  CA	1.3175684 2.6732156 6.206805 
  CA	2.1042821 2.778878 5.2698355 
  CA	2.2637272 5.525997 8.001882 
  CA	3.499268 5.77436 7.9242454 
  CA	0.9967781 3.7209382 7.0275884 
  CA	1.5353473 5.0250697 6.7561693 
40
 generated by JK
  CA	0.09823055 -1.8401673 -4.358061 
  CA	-0.7396182 -0.7589909 -4.789062 
  CA	-0.89186007 0.043564513 -3.513879 
  CA	-0.3842821 -0.4226415 -2.5230262 
  CA	-1.9845675 0.82605684 -3.44622 
  CA	-2.7326288 0.7536227 -2.175962 
  CA	-1.8166685 1.2186661 -1.0879533 
  CA	-1.7413021 0.53167474 0.038794685 
  CA	-1.4376547 2.4548898 -1.1316153 
  CA	-0.08617253 2.7432072 -1.5484974 
  CA	0.69555753 1.5185297 -1.2572733 
  CA	0.46296382 0.46621004 -1.8563144 
  CA	1.8874444 1.7414162 -0.6915332 
  CA	1.8031967 1.5144575 0.70203424 
  CA	3.0984674 1.8821276 1.3195199 
  CA	3.803273 1.0401235 1.8875877 
  CA	3.4516752 3.160193 1.2698107 
  CA	4.479465 3.231443 2.240732 
  CA	3.583317 2.5417871 3.2303648 
  CA	4.0782757 1.7608848 4.0868006 
  CA	2.4945552 3.279063 3.5104487 
  CA	1.478606 3.850267 2.5857716 
  CA	0.37855783 3.4923716 3.5196273 
  CA	-0.21120755 4.366133 4.168247 
  CA	0.83088124 2.4549732 4.2130466 
  CA	0.025694188 1.4268657 4.771708 
  CA	0.8088844 0.19181058 4.456997 
  CA	1.8738321 0.034953892 5.113229 
  CA	0.0002111122 -0.9196289 4.2541094 
  CA	0.41747367 -1.6374786 5.383197 
  CA	1.3013775 -0.44660816 5.4788346 
  CA	1.3084906 0.21205005 4.420293 
  CA	1.1578598 0.2784406 6.5566115 
  CA	0.3636077 1.4870135 6.351401 
  CA	1.2818372 2.680976 6.236737 
  CA	2.067283 2.783268 5.2949677 
  CA	2.2422104 5.5402255 8.055862 
  CA	3.4852538 5.7922907 7.9737105 
  CA	0.957939 3.738184 7.066342 
  CA	1.5025955 5.0453973 6.8029256 
40
 generated by JK
  CA	0.08784909 -1.8017038 -4.3561754 
  CA	-0.7489575 -0.72932726 -4.7735057 
  CA	-0.8996534 0.06697908 -3.4976418 
  CA	-0.39906794 -0.41020235 -2.4991288 
  CA	-1.993306 0.8364336 -3.4419904 
  CA	-2.7445219 0.7666401 -2.1778407 
  CA	-1.8203623 1.2354279 -1.1001271 
  CA	-1.746001 0.5464559 0.018318135 
  CA	-1.4507068 2.4621866 -1.1474789 
  CA	-0.09981052 2.752833 -1.540863 
  CA	0.6847041 1.52649 -1.2426791 
  CA	0.45622867 0.48633987 -1.84405 
  CA	1.8661481 1.7476174 -0.67359877 
  CA	1.7814548 1.5028801 0.7265052 
  CA	3.0878446 1.8710743 1.3418528 
  CA	3.7916553 1.025339 1.9125949 
  CA	3.4265618 3.15411 1.2846122 
  CA	4.467852 3.2285178 2.2513127 
  CA	3.5851843 2.5307884 3.2360327 
  CA	4.0760827 1.750215 4.085604 
  CA	2.505628 3.2658117 3.5241594 
  CA	1.4931442 3.8326356 2.5913308 
  CA	0.3943831 3.4798288 3.5174954 
  CA	-0.196478 4.34673 4.162835 
  CA	0.84346104 2.4557188 4.2054133 
  CA	0.037007116 1.4261986 4.773747 
  CA	0.8108132 0.19829148 4.459417 
  CA	1.8623995 0.036447644 5.1147933 
  CA	0.015317433 -0.915258 4.261164 
  CA	0.43539625 -1.6420044 5.3885713 
  CA	1.3218127 -0.46059677 5.4771166 
  CA	1.3248981 0.2038365 4.426052 
  CA	1.1673203 0.26828474 6.5510063 
  CA	0.37591466 1.4738024 6.342128 
  CA	1.2987318 2.6696532 6.2342954 
  CA	2.0780644 2.785185 5.296301 
  CA	2.268826 5.530298 8.048235 
  CA	3.5117455 5.7915864 7.968887 
  CA	0.9771762 3.7318692 7.0644484 
  CA	1.5274812 5.0296144 6.800014 
40
 generated by JK
  CA	0.06754262 -1.8171316 -4.3817134 
  CA	-0.77405643 -0.7344546 -4.8055105 
  CA	-0.91483814 0.05861838 -3.5249243 
  CA	-0.41160074 -0.41287318 -2.532197 
  CA	-2.0025337 0.8319144 -3.4713378 
  CA	-2.7561722 0.75516635 -2.1963549 
  CA	-1.8225374 1.2165751 -1.1137142 
  CA	-1.7579792 0.52912784 0.018226344 
  CA	-1.4431214 2.439491 -1.1499591 
  CA	-0.08691583 2.7341113 -1.5534176 
  CA	0.6914987 1.5141969 -1.2550601 
  CA	0.4632057 0.4663595 -1.8510578 
  CA	1.8749257 1.7408166 -0.6862646 
  CA	1.801374 1.5039451 0.71388507 
  CA	3.0962076 1.8680362 1.3410643 
  CA	3.7984288 1.0251553 1.9085563 
  CA	3.4438012 3.155352 1.2849898 
  CA	4.473199 3.2222328 2.2698867 
  CA	3.582594 2.5197127 3.261033 
  CA	4.068655 1.7403208 4.103742 
  CA	2.502712 3.2627056 3.535895 
  CA	1.4839042 3.834804 2.5998397 
  CA	0.38715783 3.4863415 3.5169044 
  CA	-0.19651891 4.352655 4.156844 
  CA	0.83714044 2.4540133 4.203022 
  CA	0.018911745 1.4241827 4.774599 
  CA	0.8012336 0.19097942 4.4563036 
  CA	1.8629456 0.025933027 5.1146173 
  CA	-0.0054570064 -0.9286291 4.262164 
  CA	0.40996867 -1.6459283 5.3997893 
  CA	1.3134304 -0.46445113 5.495331 
  CA	1.3162597 0.19905713 4.4422135 
  CA	1.1578674 0.2557732 6.5681753 
  CA	0.36134207 1.4793136 6.3596387 
  CA	1.2879877 2.6825726 6.253159 
  CA	2.0676064 2.787888 5.3164935 
  CA	2.2775111 5.5330644 8.07404 
  CA	3.5231657 5.785106 8.001467 
  CA	0.9781697 3.7491298 7.088942 
  CA	1.531458 5.04799 6.8201494 
