40
 generated by JK
  CA	4.6923676 -1.5991614 -0.850091 
  CA	5.2092233 -0.653567 -1.750832 
  CA	5.865299 -1.4638733 -2.839601 
  CA	5.387548 -2.6015933 -3.1134791 
  CA	7.094627 -1.072127 -3.2586265 
  CA	7.8818164 -2.0160508 -3.9695535 
  CA	7.2072973 -3.3233118 -3.720982 
  CA	7.2360525 -4.2244005 -4.586539 
  CA	6.2145886 -3.2861447 -2.8508925 
  CA	6.265638 -2.3095872 -1.7824389 
  CA	5.704387 -1.0973407 -2.3273814 
  CA	6.223024 -0.62134 -3.3993902 
  CA	5.130395 -0.2984975 -1.4860007 
  CA	4.313347 -0.9106838 -0.46233386 
  CA	3.1057143 -0.009202838 -0.39929047 
  CA	2.5153277 0.3565492 -1.4346712 
  CA	2.538704 0.1147511 0.8988698 
  CA	1.1521474 0.5538779 1.0049561 
  CA	1.1423378 1.7439833 1.9212433 
  CA	0.9644166 1.5772 3.0865738 
  CA	0.71728826 2.8861027 1.320451 
  CA	-0.2504633 3.7071688 1.9055707 
  CA	0.17220595 4.1084023 3.3301675 
  CA	-0.60890704 4.646051 4.0991783 
  CA	1.5530412 4.064059 3.5495372 
  CA	1.9368267 4.617289 4.8113046 
  CA	0.89063025 4.203434 5.7366858 
  CA	-0.17901908 4.733242 5.684952 
  CA	0.98925406 2.9065845 6.0750914 
  CA	-0.07741812 2.0396836 5.753544 
  CA	-1.434178 2.4666476 6.3329296 
  CA	-2.2310781 3.0171387 5.63564 
  CA	-1.7752976 1.7641604 7.4003067 
  CA	-3.1653664 1.6131468 7.7058687 
  CA	-3.8948166 2.852579 7.3783584 
  CA	-4.890813 3.2503235 7.969074 
  CA	-3.2863562 5.4861846 4.9903016 
  CA	-3.553006 6.588785 4.6991644 
  CA	-3.4585178 3.4431927 6.2250443 
  CA	-4.200667 4.6324363 5.7497587 
40
 generated by JK
  CA	4.525015 -1.5210834 -0.9875094 
  CA	5.114869 -0.60445726 -1.8536612 
  CA	5.7744765 -1.4430147 -2.8834295 
  CA	5.3303795 -2.5869136 -3.1308699 
  CA	7.0033565 -1.0419848 -3.288887 
  CA	7.7988834 -1.9882131 -4.0033193 
  CA	7.1695895 -3.3100538 -3.7399404 
  CA	7.2186017 -4.2104588 -4.617034 
  CA	6.173913 -3.2808173 -2.8419976 
  CA	6.222801 -2.3054533 -1.7795206 
  CA	5.6672096 -1.058367 -2.3017204 
  CA	6.1816473 -0.5730865 -3.3728557 
  CA	5.095251 -0.25181848 -1.4578768 
  CA	4.277007 -0.8720188 -0.4653216 
  CA	3.0504332 0.021935046 -0.3876147 
  CA	2.4819922 0.39183673 -1.4474205 
  CA	2.469671 0.12601507 0.8822433 
  CA	1.079046 0.53553116 0.99221164 
  CA	1.1012962 1.6965196 1.9454731 
  CA	0.9277844 1.5064429 3.1425073 
  CA	0.69168854 2.8668072 1.4017202 
  CA	-0.27658963 3.7188313 1.9915655 
  CA	0.15388563 4.1224804 3.4131126 
  CA	-0.61948586 4.660463 4.1565876 
  CA	1.5515423 4.091157 3.6325717 
  CA	1.9615179 4.6642175 4.8776402 
  CA	0.89899373 4.225543 5.8024087 
  CA	-0.18677774 4.777824 5.74413 
  CA	1.004453 2.9143996 6.1245413 
  CA	-0.021587789 1.9991851 5.770817 
  CA	-1.3400633 2.4270506 6.3562098 
  CA	-2.1346297 2.9807231 5.6330705 
  CA	-1.6605135 1.7149553 7.4351463 
  CA	-3.0524235 1.5607843 7.7633653 
  CA	-3.7689319 2.8131514 7.4515514 
  CA	-4.7496977 3.2049727 8.020652 
  CA	-3.1453218 5.3878484 5.1562014 
  CA	-3.4251401 6.4918294 4.8555717 
  CA	-3.3467789 3.3839822 6.361131 
  CA	-4.050018 4.56737 5.946674 
40
 generated by JK
  CA	4.4491277 -1.4494464 -0.89969903 
  CA	5.029016 -0.5574847 -1.812158 
  CA	5.712713 -1.4035522 -2.840436 
  CA	5.25549 -2.5674818 -3.0736713 
  CA	6.9227705 -1.0100459 -3.2722464 
  CA	7.7341275 -1.8938797 -3.984919 
  CA	7.1170673 -3.2293286 -3.7271209 
  CA	7.1721444 -4.13624 -4.5862784 
  CA	6.125543 -3.2301443 -2.862026 
  CA	6.1764183 -2.2708716 -1.7845095 
  CA	5.643994 -1.0583018 -2.3136818 
  CA	6.158722 -0.5720144 -3.3910196 
  CA	5.066226 -0.25155652 -1.4775251 
  CA	4.2603645 -0.88219845 -0.47133905 
  CA	3.0624444 0.019539773 -0.41517225 
  CA	2.4884384 0.36889923 -1.4377933 
  CA	2.5108562 0.12150818 0.86167186 
  CA	1.1056478 0.53308564 0.96659493 
  CA	1.1112505 1.6631827 1.9340665 
  CA	0.9593674 1.4743782 3.0917747 
  CA	0.70346344 2.8448918 1.3757696 
  CA	-0.26559174 3.6481254 1.9691746 
  CA	0.16815048 4.0844235 3.3879256 
  CA	-0.61239505 4.640279 4.1334095 
  CA	1.5540335 4.0566654 3.5747519 
  CA	1.9324015 4.629357 4.8255925 
  CA	0.90727746 4.205619 5.751696 
  CA	-0.15805346 4.7342043 5.718096 
  CA	1.0252666 2.8921149 6.058237 
  CA	-0.011898965 2.0081072 5.7442875 
  CA	-1.3513306 2.4258976 6.305728 
  CA	-2.1215522 2.9945588 5.6114864 
  CA	-1.6789699 1.7268858 7.399723 
  CA	-3.0464768 1.5584276 7.6912074 
  CA	-3.7582908 2.791347 7.3766646 
  CA	-4.7637258 3.1687076 7.925098 
  CA	-3.0940824 5.40862 5.0407557 
  CA	-3.3672793 6.4845915 4.7443075 
  CA	-3.3079534 3.3615324 6.26349 
  CA	-4.006517 4.5613656 5.8025684 
40
 generated by JK
  CA	4.8010793 -1.6588669 -0.9471831 
  CA	5.258717 -0.70526195 -1.8031659 
  CA	5.9058533 -1.4972085 -2.8928132 
  CA	5.443959 -2.6422405 -3.17329 
  CA	7.1397014 -1.0987434 -3.299263 
  CA	7.9189963 -2.0580344 -4.0066667 
  CA	7.2395616 -3.3878171 -3.7325065 
  CA	7.252678 -4.287513 -4.5989294 
  CA	6.2527003 -3.3375123 -2.8326373 
  CA	6.2911477 -2.3554716 -1.777454 
  CA	5.701792 -1.1193922 -2.3048599 
  CA	6.2213182 -0.63739914 -3.3760371 
  CA	5.1463056 -0.3135986 -1.4544197 
  CA	4.3198752 -0.90549207 -0.46522635 
  CA	3.0878544 0.004604459 -0.4012449 
  CA	2.5112565 0.3692375 -1.457045 
  CA	2.5046084 0.121522725 0.88855326 
  CA	1.1075695 0.56890166 0.999516 
  CA	1.1203376 1.7642468 1.923954 
  CA	0.95421875 1.5951444 3.11026 
  CA	0.6955799 2.9111092 1.3425075 
  CA	-0.26068848 3.7739494 1.9283028 
  CA	0.16140287 4.144142 3.3920932 
  CA	-0.62239903 4.685371 4.160528 
  CA	1.5627615 4.090949 3.6132736 
  CA	1.9597201 4.634584 4.8881865 
  CA	0.87484086 4.20028 5.8087854 
  CA	-0.19769442 4.764368 5.740424 
  CA	0.9695274 2.9067032 6.149356 
  CA	-0.07939926 2.0250988 5.7817683 
  CA	-1.4164777 2.4549556 6.3690224 
  CA	-2.2174485 3.0148046 5.6455746 
  CA	-1.7424176 1.7428198 7.444791 
  CA	-3.1441517 1.6100602 7.76942 
  CA	-3.8656728 2.8713927 7.465011 
  CA	-4.8474574 3.2770472 8.053552 
  CA	-3.3234189 5.484908 5.1141706 
  CA	-3.5673525 6.5941315 4.797833 
  CA	-3.467955 3.4747663 6.340995 
  CA	-4.254161 4.6640472 5.901397 
40
 generated by JK
  CA	5.179774 -1.8979002 -0.9150825 
  CA	5.5334244 -0.8665903 -1.7629739 
  CA	6.137284 -1.5898455 -2.9051943 
  CA	5.6776986 -2.7124684 -3.225991 
  CA	7.3678365 -1.182186 -3.2955828 
  CA	8.114823 -2.1907492 -3.987115 
  CA	7.374721 -3.4758055 -3.69922 
  CA	7.346405 -4.3928523 -4.545317 
  CA	6.379311 -3.3767853 -2.8118715 
  CA	6.4014087 -2.3529558 -1.7785348 
  CA	5.806555 -1.12995 -2.285037 
  CA	6.3303347 -0.6446203 -3.3441956 
  CA	5.250741 -0.32158202 -1.4257324 
  CA	4.398832 -0.87324005 -0.39617604 
  CA	3.1573796 0.025385678 -0.33554545 
  CA	2.5614595 0.36980772 -1.3747902 
  CA	2.5738494 0.17836785 0.94913775 
  CA	1.1904776 0.65973043 0.99275696 
  CA	1.1482964 1.888786 1.8827672 
  CA	0.9846332 1.7240198 3.0623395 
  CA	0.6961371 3.0064194 1.2765799 
  CA	-0.27172232 3.8806257 1.8461499 
  CA	0.11873972 4.2051654 3.3223429 
  CA	-0.67096424 4.7202635 4.138377 
  CA	1.5304763 4.1154947 3.5507894 
  CA	1.9225783 4.599279 4.8595786 
  CA	0.81476605 4.1814184 5.7390337 
  CA	-0.24639377 4.7608833 5.6596947 
  CA	0.8761056 2.8956902 6.1093817 
  CA	-0.18665911 2.0209684 5.7556715 
  CA	-1.5353366 2.4351037 6.3449736 
  CA	-2.3505104 2.9673233 5.642599 
  CA	-1.8525548 1.7289386 7.428999 
  CA	-3.2434666 1.6191524 7.736376 
  CA	-3.9777877 2.8750439 7.457616 
  CA	-4.933142 3.2927666 8.097536 
  CA	-3.56707 5.523895 5.044259 
  CA	-3.7651289 6.66345 4.7396026 
  CA	-3.6498134 3.512905 6.283286 
  CA	-4.505486 4.6786404 5.8110175 
40
 generated by JK
  CA	4.886529 -1.7505988 -1.0117114 
  CA	5.3440695 -0.7626833 -1.8526706 
  CA	5.987852 -1.5206696 -2.9095452 
  CA	5.541643 -2.659225 -3.185389 
  CA	7.2064652 -1.1165698 -3.3080819 
  CA	7.971092 -2.0889974 -4.001345 
  CA	7.2844505 -3.3931944 -3.711138 
  CA	7.293766 -4.304224 -4.561037 
  CA	6.2850385 -3.323892 -2.811971 
  CA	6.310406 -2.3170958 -1.7658795 
  CA	5.7289205 -1.0881574 -2.274354 
  CA	6.240067 -0.61079645 -3.3360631 
  CA	5.1715627 -0.27058643 -1.42241 
  CA	4.3239584 -0.8444062 -0.4180647 
  CA	3.0973601 0.037139952 -0.35803166 
  CA	2.5208013 0.38013104 -1.3992596 
  CA	2.5078614 0.1577124 0.9116917 
  CA	1.117751 0.59227216 0.98937136 
  CA	1.1070737 1.7794213 1.9283772 
  CA	0.9516603 1.5895419 3.1216924 
  CA	0.6734283 2.9345489 1.3571162 
  CA	-0.29664248 3.7997231 1.9424489 
  CA	0.12065839 4.171759 3.3915458 
  CA	-0.64822984 4.701281 4.1806164 
  CA	1.5218785 4.117657 3.6158376 
  CA	1.9331284 4.64183 4.8930116 
  CA	0.84679496 4.2016296 5.791261 
  CA	-0.2159245 4.7778034 5.7228556 
  CA	0.92900985 2.8963346 6.1334267 
  CA	-0.1048366 2.0022342 5.774866 
  CA	-1.4324688 2.4077725 6.36349 
  CA	-2.2300158 2.9513087 5.6471167 
  CA	-1.7449964 1.693423 7.4501867 
  CA	-3.1407247 1.5670172 7.7677197 
  CA	-3.86122 2.8249283 7.490391 
  CA	-4.824508 3.227252 8.089265 
  CA	-3.374977 5.4444 5.1632133 
  CA	-3.6005776 6.5592227 4.8604317 
  CA	-3.5018408 3.4551716 6.370327 
  CA	-4.2872005 4.6299257 5.947627 
40
 generated by JK
  CA	5.23053 -1.9359313 -1.0230888 
  CA	5.580328 -0.88779896 -1.8416877 
  CA	6.181287 -1.5922523 -2.9486027 
  CA	5.7449822 -2.7134655 -3.2665489 
  CA	7.405274 -1.187442 -3.3313966 
  CA	8.126973 -2.2058525 -4.02775 
  CA	7.400458 -3.4878116 -3.7230766 
  CA	7.3698554 -4.403031 -4.56465 
  CA	6.398418 -3.3806324 -2.8323894 
  CA	6.4192038 -2.3475108 -1.8111001 
  CA	5.816209 -1.1193368 -2.2983978 
  CA	6.3411903 -0.64703697 -3.3575103 
  CA	5.2529764 -0.29945266 -1.4248067 
  CA	4.37281 -0.83763283 -0.39778554 
  CA	3.1214452 0.037011564 -0.32173285 
  CA	2.529439 0.36341664 -1.3692825 
  CA	2.5359652 0.18526185 0.9495301 
  CA	1.16358 0.66732126 0.98478997 
  CA	1.1079936 1.8904124 1.8904247 
  CA	0.9517024 1.7071054 3.084709 
  CA	0.6677918 3.0166237 1.3195715 
  CA	-0.30494165 3.9124477 1.8929574 
  CA	0.077233166 4.229206 3.3737645 
  CA	-0.7083305 4.740575 4.190104 
  CA	1.5099158 4.1422157 3.6064239 
  CA	1.9201076 4.618229 4.912014 
  CA	0.78487927 4.1785 5.775087 
  CA	-0.27838305 4.7784777 5.676917 
  CA	0.84049904 2.8825903 6.1512327 
  CA	-0.20198116 1.9776561 5.790907 
  CA	-1.5347959 2.377612 6.3784227 
  CA	-2.3500037 2.9048233 5.664255 
  CA	-1.8329988 1.6722949 7.4746685 
  CA	-3.2259996 1.575764 7.798896 
  CA	-3.9531903 2.8460739 7.545033 
  CA	-4.894379 3.2633443 8.180891 
  CA	-3.5888076 5.486446 5.181732 
  CA	-3.7570975 6.6363907 4.871179 
  CA	-3.6518178 3.4927197 6.3921347 
  CA	-4.5159664 4.643155 5.950408 
40
 generated by JK
  CA	5.1994066 -1.8800888 -0.94629544 
  CA	5.556704 -0.8798151 -1.8036013 
  CA	6.139694 -1.6134487 -2.925299 
  CA	5.688821 -2.7502117 -3.2410192 
  CA	7.3664565 -1.2095643 -3.3122854 
  CA	8.129586 -2.2288651 -3.9922547 
  CA	7.394368 -3.5133462 -3.6905417 
  CA	7.3588557 -4.4418306 -4.5278316 
  CA	6.3879304 -3.4126844 -2.8004088 
  CA	6.4119453 -2.3741424 -1.7640518 
  CA	5.8162518 -1.1263298 -2.2412658 
  CA	6.347318 -0.627229 -3.2846441 
  CA	5.251907 -0.32542115 -1.370255 
  CA	4.38951 -0.8666894 -0.34189522 
  CA	3.1461945 0.039218366 -0.28258553 
  CA	2.5539243 0.3781994 -1.319502 
  CA	2.5562005 0.20439279 0.98316646 
  CA	1.1779478 0.6905874 0.98898005 
  CA	1.1359004 1.904128 1.8772367 
  CA	0.9813577 1.7391148 3.063579 
  CA	0.68831646 3.0206394 1.2827637 
  CA	-0.26908648 3.9011488 1.8363547 
  CA	0.118311286 4.210694 3.3112946 
  CA	-0.66752553 4.7233224 4.1295404 
  CA	1.5408382 4.1186852 3.5431104 
  CA	1.9404708 4.5878897 4.866602 
  CA	0.81737316 4.1699944 5.7432427 
  CA	-0.23689055 4.758831 5.6649 
  CA	0.8610942 2.8879828 6.110839 
  CA	-0.20129117 1.9977481 5.751224 
  CA	-1.5301768 2.4173875 6.3381863 
  CA	-2.3391483 2.9468584 5.636392 
  CA	-1.8345915 1.7062235 7.4271708 
  CA	-3.2192862 1.6011481 7.7275686 
  CA	-3.9419327 2.8420696 7.468511 
  CA	-4.8782835 3.2713785 8.115763 
  CA	-3.5470572 5.457862 5.082991 
  CA	-3.7426584 6.5993795 4.770294 
  CA	-3.6398633 3.4632282 6.3066106 
  CA	-4.486957 4.603917 5.854682 
40
 generated by JK
  CA	5.4240756 -2.040288 -0.9309985 
  CA	5.704871 -0.9948807 -1.7678057 
  CA	6.275254 -1.6774824 -2.934725 
  CA	5.827587 -2.8006742 -3.2806797 
  CA	7.4997654 -1.2532567 -3.3156283 
  CA	8.248845 -2.3007817 -3.9840128 
  CA	7.466884 -3.5760953 -3.672274 
  CA	7.4076147 -4.5063252 -4.5018578 
  CA	6.4596834 -3.4499683 -2.777846 
  CA	6.4651713 -2.3947806 -1.760872 
  CA	5.8541956 -1.153023 -2.238055 
  CA	6.3852997 -0.65026116 -3.27431 
  CA	5.305637 -0.34244072 -1.3644075 
  CA	4.443566 -0.862666 -0.33459908 
  CA	3.192934 0.054434747 -0.27664277 
  CA	2.5978043 0.38898385 -1.3130641 
  CA	2.594729 0.22905862 0.99495924 
  CA	1.2088774 0.7416313 0.98789006 
  CA	1.1581873 1.9762872 1.8661791 
  CA	1.0055085 1.8114728 3.0566812 
  CA	0.6907988 3.084875 1.2461174 
  CA	-0.26930106 3.9773252 1.7889674 
  CA	0.09821077 4.25326 3.290663 
  CA	-0.69350576 4.757398 4.135113 
  CA	1.5255277 4.1335077 3.5170026 
  CA	1.9261483 4.574835 4.858724 
  CA	0.78689796 4.166236 5.72062 
  CA	-0.2606919 4.769973 5.639147 
  CA	0.81979895 2.8899374 6.1011 
  CA	-0.24112211 2.0076666 5.726898 
  CA	-1.5814354 2.4220448 6.32491 
  CA	-2.4046874 2.944253 5.62689 
  CA	-1.8799279 1.705704 7.415737 
  CA	-3.273662 1.6142042 7.7132497 
  CA	-4.0144506 2.866529 7.4701943 
  CA	-4.944129 3.3005776 8.150933 
  CA	-3.6989155 5.511682 5.0468974 
  CA	-3.876094 6.6575165 4.726071 
  CA	-3.7429035 3.5208383 6.2908335 
  CA	-4.651 4.665597 5.8245063 
40
 generated by JK
  CA	5.58237 -2.091089 -0.9450432 
  CA	5.808289 -0.9961005 -1.764909 
  CA	6.36407 -1.665676 -2.9607823 
  CA	5.91496 -2.7703726 -3.3314478 
  CA	7.6002965 -1.2593328 -3.3314948 
  CA	8.292147 -2.318946 -4.023392 
  CA	7.50671 -3.5830083 -3.7174842 
  CA	7.4331927 -4.506355 -4.5522537 
  CA	6.5116134 -3.444342 -2.8397295 
  CA	6.5261216 -2.3898735 -1.8370811 
  CA	5.9004407 -1.1689574 -2.3125408 
  CA	6.4377403 -0.6882202 -3.36618 
  CA	5.3373957 -0.35548115 -1.4281248 
  CA	4.4470625 -0.86907107 -0.37597096 
  CA	3.1714664 0.021528542 -0.29242513 
  CA	2.5576603 0.3470487 -1.3385342 
  CA	2.5940711 0.20728666 0.99326754 
  CA	1.2347742 0.7466768 0.9891914 
  CA	1.1440125 2.01473 1.8432814 
  CA	0.9798589 1.8598078 3.0250576 
  CA	0.688714 3.101438 1.2401527 
  CA	-0.28234422 4.006667 1.7932358 
  CA	0.06723715 4.265474 3.3084695 
  CA	-0.7428851 4.7605577 4.1473193 
  CA	1.5221646 4.1317825 3.5431995 
  CA	1.9106238 4.563079 4.884316 
  CA	0.7409636 4.146036 5.724414 
  CA	-0.3187834 4.750885 5.6114674 
  CA	0.7713431 2.872371 6.13412 
  CA	-0.30284452 1.981873 5.776675 
  CA	-1.6599728 2.3905349 6.3639927 
  CA	-2.4935842 2.9075546 5.6611814 
  CA	-1.9557086 1.6961648 7.461426 
  CA	-3.3464482 1.6212838 7.7785687 
  CA	-4.0847316 2.8957963 7.52872 
  CA	-5.0189166 3.3339992 8.209592 
  CA	-3.806683 5.561243 5.08273 
  CA	-3.9372418 6.739278 4.7666283 
  CA	-3.8212118 3.547936 6.322785 
  CA	-4.77258 4.683719 5.8351154 
