40
 generated by JK
  CA	-4.946477 0.8831712 1.8600459 
  CA	-5.9688096 1.7894238 2.2846584 
  CA	-6.15933 2.8493876 1.2298365 
  CA	-7.2762933 3.3272116 1.0402287 
  CA	-5.005942 3.4726946 0.8781929 
  CA	-4.8038225 4.832342 0.46686798 
  CA	-3.3359323 4.7943835 0.17220128 
  CA	-2.8358016 5.5282407 -0.68784314 
  CA	-2.7559483 3.6705852 0.6644796 
  CA	-1.4549589 3.1634133 0.32975534 
  CA	-1.3443155 1.6702895 0.52598315 
  CA	-1.5102948 1.1868908 1.6528926 
  CA	-0.38553074 1.1747941 -0.28609937 
  CA	0.8025343 0.60114336 0.3067745 
  CA	0.40920693 -0.7757494 0.6978877 
  CA	-0.30087304 -1.3782774 -0.09909098 
  CA	0.37406042 -1.0224588 2.047198 
  CA	1.6161617 -1.4240128 2.6159322 
  CA	2.1336112 -1.4690031 1.2491553 
  CA	3.3173165 -1.183065 1.0613987 
  CA	1.129919 -1.1433212 0.37561172 
  CA	0.4150172 0.03983015 0.740839 
  CA	1.4421991 0.28041476 1.7412562 
  CA	2.154456 1.2677284 1.6040305 
  CA	2.0399537 -0.9276785 1.9431639 
  CA	3.2146876 -1.1757151 1.141658 
  CA	3.8288333 -2.5548787 1.0766395 
  CA	4.9882755 -2.687268 1.5125514 
  CA	3.2720325 -3.4858418 0.2492129 
  CA	3.8355908 -4.767242 -0.18409884 
  CA	5.3067703 -4.6472983 -0.049209565 
  CA	6.1345806 -5.5243425 -0.31970334 
  CA	5.610789 -3.398177 0.26694098 
  CA	6.97062 -3.095807 0.51497084 
  CA	6.833875 -2.5940247 1.8707621 
  CA	5.911425 -3.0469177 2.537619 
  CA	9.062569 -4.2736917 3.5294766 
  CA	8.825888 -5.2506986 4.2231603 
  CA	8.039481 -2.445421 2.434619 
  CA	8.301892 -3.0028176 3.7124937 
40
 generated by JK
  CA	-4.9698286 0.8580687 1.850539 
  CA	-5.9855847 1.7677848 2.2807322 
  CA	-6.1822896 2.8372498 1.2224814 
  CA	-7.2956963 3.3182735 1.0293069 
  CA	-5.0348 3.4666476 0.8712288 
  CA	-4.827643 4.8236713 0.45227993 
  CA	-3.346025 4.7900662 0.15600611 
  CA	-2.8440337 5.5247436 -0.70036936 
  CA	-2.7623332 3.6595554 0.6508256 
  CA	-1.462398 3.1467617 0.31392667 
  CA	-1.3478062 1.6557572 0.52013934 
  CA	-1.5133103 1.1787088 1.6515793 
  CA	-0.38748562 1.1616638 -0.2789492 
  CA	0.79784465 0.6007313 0.31653216 
  CA	0.40073198 -0.76928055 0.70850605 
  CA	-0.30762053 -1.3771354 -0.08819327 
  CA	0.3613413 -1.0212228 2.0561564 
  CA	1.6043184 -1.419656 2.6164231 
  CA	2.1216953 -1.4608601 1.2393075 
  CA	3.3071833 -1.172895 1.0556275 
  CA	1.120298 -1.1418159 0.36546797 
  CA	0.4112701 0.04193926 0.72908 
  CA	1.451534 0.2820297 1.73348 
  CA	2.169175 1.2734486 1.5963461 
  CA	2.054203 -0.9300882 1.9421109 
  CA	3.2336547 -1.1805713 1.1339778 
  CA	3.8431542 -2.5692127 1.0663478 
  CA	5.000167 -2.6985419 1.5047661 
  CA	3.2871768 -3.4996924 0.2330261 
  CA	3.8537495 -4.7795663 -0.20372236 
  CA	5.324112 -4.659467 -0.05870463 
  CA	6.14682 -5.5324035 -0.33790645 
  CA	5.6374116 -3.414043 0.26102525 
  CA	6.986205 -3.0991201 0.514529 
  CA	6.848082 -2.603363 1.8731567 
  CA	5.911531 -3.054302 2.5349019 
  CA	9.077466 -4.2901683 3.5350127 
  CA	8.842993 -5.2721915 4.222165 
  CA	8.055696 -2.4540553 2.4343784 
  CA	8.318749 -3.0179832 3.7188387 
40
 generated by JK
  CA	-4.9387484 0.87766063 1.8550478 
  CA	-5.9579153 1.7887725 2.2858052 
  CA	-6.149657 2.8490665 1.2305155 
  CA	-7.2713304 3.321512 1.0484791 
  CA	-4.995875 3.4740865 0.8762924 
  CA	-4.7996893 4.834137 0.46235186 
  CA	-3.331993 4.795725 0.1730621 
  CA	-2.8293679 5.5303674 -0.685207 
  CA	-2.7534845 3.6718714 0.6650963 
  CA	-1.4590714 3.1650655 0.33538446 
  CA	-1.3463945 1.6724837 0.5306223 
  CA	-1.5092388 1.1883221 1.6531798 
  CA	-0.39102185 1.1758963 -0.2861789 
  CA	0.79562086 0.60088086 0.31106406 
  CA	0.40342993 -0.77789515 0.7007807 
  CA	-0.30809498 -1.3809978 -0.09377849 
  CA	0.36923176 -1.021846 2.0492215 
  CA	1.6112555 -1.4206566 2.6175082 
  CA	2.1321306 -1.4681989 1.250954 
  CA	3.315312 -1.1870594 1.0594652 
  CA	1.1329523 -1.1423874 0.3786724 
  CA	0.41589132 0.039387777 0.74570936 
  CA	1.4482063 0.2795046 1.7425203 
  CA	2.1589174 1.271738 1.6087018 
  CA	2.048386 -0.9254057 1.9394405 
  CA	3.219072 -1.1745936 1.1435254 
  CA	3.8374448 -2.550368 1.080362 
  CA	4.9888787 -2.6807044 1.5159845 
  CA	3.2804365 -3.4842443 0.25608003 
  CA	3.842003 -4.7631965 -0.17497015 
  CA	5.308936 -4.6429753 -0.0396716 
  CA	6.1389546 -5.5146303 -0.3137298 
  CA	5.6144333 -3.3919091 0.26829755 
  CA	6.9713774 -3.0926478 0.51290876 
  CA	6.838455 -2.588004 1.8740616 
  CA	5.917768 -3.0472164 2.54208 
  CA	9.056546 -4.26519 3.5290341 
  CA	8.819538 -5.244942 4.2191734 
  CA	8.041596 -2.4375951 2.4346778 
  CA	8.300904 -2.9964123 3.7183845 
40
 generated by JK
  CA	-4.9453783 0.8738487 1.8608799 
  CA	-5.961047 1.7803645 2.2846875 
  CA	-6.1500134 2.8451931 1.2310164 
  CA	-7.264778 3.326667 1.0397357 
  CA	-5.000467 3.4697578 0.8844018 
  CA	-4.8000493 4.8301883 0.47540432 
  CA	-3.331468 4.795334 0.18083535 
  CA	-2.8307369 5.528019 -0.6752862 
  CA	-2.7450285 3.6737819 0.6694559 
  CA	-1.4530871 3.163337 0.33147573 
  CA	-1.3438402 1.6677946 0.5290578 
  CA	-1.5107454 1.1781541 1.6562786 
  CA	-0.3863408 1.1718276 -0.2831797 
  CA	0.7967216 0.6006925 0.31001076 
  CA	0.40681958 -0.7724641 0.69658506 
  CA	-0.30908722 -1.3761444 -0.100257635 
  CA	0.3748079 -1.021944 2.050878 
  CA	1.6126513 -1.4212519 2.6181018 
  CA	2.128485 -1.4689337 1.2449341 
  CA	3.31289 -1.1793436 1.0593419 
  CA	1.1242316 -1.1527519 0.37319165 
  CA	0.41022474 0.027899921 0.73352474 
  CA	1.441247 0.27179682 1.7386609 
  CA	2.1529324 1.2636552 1.6061853 
  CA	2.036333 -0.93977624 1.9344119 
  CA	3.2105312 -1.1875868 1.1330543 
  CA	3.8180208 -2.559386 1.0687183 
  CA	4.976662 -2.6836982 1.5033951 
  CA	3.2650216 -3.484123 0.24200484 
  CA	3.8242612 -4.7639112 -0.18170398 
  CA	5.298436 -4.6503286 -0.046034783 
  CA	6.124058 -5.526872 -0.3178461 
  CA	5.6000466 -3.4019709 0.2702956 
  CA	6.960695 -3.0997133 0.51072913 
  CA	6.8259377 -2.5944433 1.8636476 
  CA	5.898895 -3.0487096 2.5301952 
  CA	9.058742 -4.2658014 3.526898 
  CA	8.815275 -5.246617 4.216212 
  CA	8.037042 -2.4443216 2.4250014 
  CA	8.30225 -2.999995 3.7066674 
40
 generated by JK
  CA	-4.947856 0.8742132 1.848632 
  CA	-5.9652314 1.7821102 2.2825727 
  CA	-6.1563025 2.8429976 1.2246845 
  CA	-7.2740436 3.3223367 1.034791 
  CA	-5.0090117 3.4751046 0.8710438 
  CA	-4.802056 4.8348618 0.4643852 
  CA	-3.3338284 4.7934613 0.16232647 
  CA	-2.8358479 5.5242767 -0.6924523 
  CA	-2.7459967 3.669665 0.65158665 
  CA	-1.4495959 3.1599288 0.31893507 
  CA	-1.3323761 1.6672586 0.5244428 
  CA	-1.4937202 1.1881698 1.6520965 
  CA	-0.37886304 1.1729469 -0.28123814 
  CA	0.8054177 0.60343564 0.3117844 
  CA	0.4086827 -0.7673655 0.70182264 
  CA	-0.2961349 -1.375324 -0.09174903 
  CA	0.371211 -1.0189863 2.048834 
  CA	1.6138734 -1.4158556 2.6097293 
  CA	2.127883 -1.4568298 1.2416873 
  CA	3.314018 -1.1719046 1.06206 
  CA	1.1232768 -1.1375937 0.37024382 
  CA	0.41047487 0.04376708 0.73449814 
  CA	1.4417394 0.28057903 1.7363367 
  CA	2.1521497 1.2639261 1.5982094 
  CA	2.041597 -0.924082 1.9391128 
  CA	3.2176423 -1.1787865 1.1357347 
  CA	3.8305666 -2.5632722 1.0709264 
  CA	4.991008 -2.6932745 1.5078052 
  CA	3.2691665 -3.4963162 0.2430715 
  CA	3.8273685 -4.768613 -0.19252905 
  CA	5.298882 -4.6483865 -0.0522407 
  CA	6.11663 -5.5216947 -0.32478973 
  CA	5.6107683 -3.407225 0.2570052 
  CA	6.9631844 -3.0995288 0.50973034 
  CA	6.822442 -2.59148 1.8694485 
  CA	5.899871 -3.0418036 2.5341978 
  CA	9.05554 -4.2760267 3.5318375 
  CA	8.815723 -5.2571526 4.2133665 
  CA	8.030848 -2.4469435 2.4301789 
  CA	8.293902 -3.0101097 3.7125342 
40
 generated by JK
  CA	-4.9549084 0.85324454 1.8570414 
  CA	-5.9732423 1.770813 2.2863803 
  CA	-6.165227 2.8393703 1.2258078 
  CA	-7.281572 3.3163657 1.0421088 
  CA	-5.015138 3.4667268 0.86800086 
  CA	-4.8147054 4.8280487 0.44970292 
  CA	-3.335958 4.792974 0.15711819 
  CA	-2.834438 5.53138 -0.6987437 
  CA	-2.7537644 3.659411 0.65528893 
  CA	-1.4599297 3.1486578 0.32114613 
  CA	-1.3467363 1.6572981 0.5252911 
  CA	-1.5114952 1.1783968 1.6537628 
  CA	-0.38917542 1.1639402 -0.28668684 
  CA	0.7942715 0.5983908 0.31266394 
  CA	0.39708185 -0.7746323 0.7099432 
  CA	-0.31306773 -1.3807362 -0.08435996 
  CA	0.36373538 -1.0244818 2.0510728 
  CA	1.6081984 -1.416196 2.6098301 
  CA	2.1282334 -1.4592383 1.2397617 
  CA	3.3140113 -1.177025 1.0540661 
  CA	1.1275021 -1.1364071 0.37238076 
  CA	0.41403678 0.04616782 0.7406714 
  CA	1.4535848 0.280743 1.7393541 
  CA	2.16509 1.2716876 1.6016561 
  CA	2.0546021 -0.9271104 1.9430901 
  CA	3.230609 -1.1795214 1.1412942 
  CA	3.8426843 -2.56486 1.0762829 
  CA	4.9968977 -2.6947486 1.514427 
  CA	3.2864351 -3.4978995 0.24564777 
  CA	3.8488176 -4.777666 -0.1855284 
  CA	5.3150296 -4.652023 -0.042146116 
  CA	6.1428595 -5.5246005 -0.32042223 
  CA	5.627291 -3.4037342 0.2738292 
  CA	6.978532 -3.0945675 0.51952815 
  CA	6.8408446 -2.5936146 1.8776059 
  CA	5.9085555 -3.050442 2.5454586 
  CA	9.0678625 -4.2724614 3.5369978 
  CA	8.829471 -5.25845 4.2285666 
  CA	8.050126 -2.4448304 2.4341943 
  CA	8.311215 -3.0057855 3.7212825 
40
 generated by JK
  CA	-4.949546 0.85510075 1.8509246 
  CA	-5.96941 1.769317 2.278366 
  CA	-6.159317 2.8361192 1.223415 
  CA	-7.269511 3.3137739 1.0349935 
  CA	-5.013648 3.4669342 0.86837876 
  CA	-4.8148527 4.8330417 0.45402515 
  CA	-3.3319001 4.7931504 0.16131575 
  CA	-2.8332975 5.5295706 -0.69248664 
  CA	-2.7433105 3.662487 0.65306604 
  CA	-1.4531945 3.1455243 0.31746098 
  CA	-1.3435179 1.6556512 0.52111006 
  CA	-1.5103799 1.1735897 1.6462721 
  CA	-0.3896473 1.1622118 -0.28464523 
  CA	0.7903213 0.59644586 0.3149324 
  CA	0.39579195 -0.76956373 0.70890445 
  CA	-0.31829417 -1.3779984 -0.08225824 
  CA	0.36374238 -1.021421 2.0516922 
  CA	1.6021496 -1.4121655 2.6113834 
  CA	2.1206903 -1.4588885 1.2336655 
  CA	3.3041627 -1.1767709 1.0499477 
  CA	1.1179308 -1.1398723 0.36894417 
  CA	0.4075381 0.03804484 0.73606074 
  CA	1.4518827 0.27314723 1.736071 
  CA	2.1659665 1.2616668 1.5964503 
  CA	2.0515468 -0.93728334 1.9401708 
  CA	3.2284908 -1.1889113 1.1374342 
  CA	3.83341 -2.5720108 1.070973 
  CA	4.990418 -2.698083 1.5079937 
  CA	3.2841058 -3.4984024 0.23868863 
  CA	3.8446376 -4.781903 -0.18798271 
  CA	5.309086 -4.657881 -0.044786096 
  CA	6.1321425 -5.5271115 -0.32280385 
  CA	5.6186304 -3.4136121 0.27404413 
  CA	6.9658027 -3.1037412 0.51801157 
  CA	6.8279276 -2.6009243 1.8732656 
  CA	5.889241 -3.0553472 2.5400584 
  CA	9.0578375 -4.2799487 3.5332584 
  CA	8.816464 -5.2674465 4.224709 
  CA	8.037553 -2.4521067 2.4300625 
  CA	8.30358 -3.0129898 3.7111557 
40
 generated by JK
  CA	-4.948985 0.86228406 1.8545048 
  CA	-5.9686007 1.7762129 2.2831492 
  CA	-6.1538806 2.8431 1.2283846 
  CA	-7.2681274 3.3234336 1.0443354 
  CA	-5.0019526 3.463975 0.87641203 
  CA	-4.797917 4.8242784 0.4682272 
  CA	-3.328867 4.785565 0.17659472 
  CA	-2.8294024 5.516098 -0.6793697 
  CA	-2.745307 3.6607115 0.6699643 
  CA	-1.4483027 3.1544337 0.32831976 
  CA	-1.3375283 1.6638672 0.5319069 
  CA	-1.5043938 1.1865137 1.6561342 
  CA	-0.38981 1.1694589 -0.28466913 
  CA	0.80136156 0.59714746 0.3042077 
  CA	0.40448266 -0.77755946 0.7016063 
  CA	-0.30938834 -1.3812126 -0.09465304 
  CA	0.3763895 -1.0228835 2.0473063 
  CA	1.6109942 -1.4177032 2.612058 
  CA	2.1292558 -1.460908 1.2395039 
  CA	3.3130388 -1.1742581 1.0532521 
  CA	1.1243491 -1.1382679 0.37592876 
  CA	0.41077048 0.042382985 0.74296874 
  CA	1.446723 0.28057057 1.7378997 
  CA	2.153933 1.2680318 1.6029109 
  CA	2.0427313 -0.9233028 1.9358996 
  CA	3.219381 -1.1718484 1.1322584 
  CA	3.8320534 -2.5490336 1.0688062 
  CA	4.991193 -2.6825387 1.5072769 
  CA	3.2726152 -3.4818695 0.24287884 
  CA	3.8356366 -4.7656336 -0.18842414 
  CA	5.300582 -4.646272 -0.04584381 
  CA	6.1264462 -5.5182095 -0.31551054 
  CA	5.60485 -3.3970299 0.26853687 
  CA	6.9625616 -3.0911117 0.51507276 
  CA	6.8215017 -2.5820434 1.8697433 
  CA	5.895946 -3.0394535 2.5412238 
  CA	9.053068 -4.26994 3.53624 
  CA	8.812037 -5.254323 4.2294197 
  CA	8.037533 -2.4374568 2.4280097 
  CA	8.298575 -3.0030851 3.7101371 
40
 generated by JK
  CA	-4.9385796 0.86177075 1.8517774 
  CA	-5.9619718 1.7747165 2.279355 
  CA	-6.149773 2.8419578 1.2269303 
  CA	-7.2648506 3.3159635 1.0378047 
  CA	-5.0019584 3.4729512 0.86816746 
  CA	-4.807997 4.840509 0.45893705 
  CA	-3.3300052 4.7979426 0.16385518 
  CA	-2.8311253 5.5342436 -0.6884747 
  CA	-2.7400024 3.6712952 0.6514025 
  CA	-1.4482139 3.152467 0.32118973 
  CA	-1.3365355 1.6587428 0.5212898 
  CA	-1.5024198 1.1756167 1.6450694 
  CA	-0.38110295 1.1670803 -0.2811198 
  CA	0.7969989 0.5970915 0.31820205 
  CA	0.4033023 -0.7708383 0.7090714 
  CA	-0.30869174 -1.3781663 -0.08358155 
  CA	0.37013164 -1.0230095 2.048897 
  CA	1.6087712 -1.4137064 2.6059515 
  CA	2.127508 -1.4628421 1.2362485 
  CA	3.3079295 -1.1814831 1.0523206 
  CA	1.12465 -1.1405524 0.36923927 
  CA	0.4109047 0.034577757 0.7352095 
  CA	1.4466686 0.2693212 1.7417142 
  CA	2.1612148 1.2573138 1.6021212 
  CA	2.0425932 -0.9414175 1.9431819 
  CA	3.2193627 -1.1923904 1.143766 
  CA	3.8237228 -2.5760357 1.0760772 
  CA	4.9804087 -2.7027502 1.5103065 
  CA	3.2737818 -3.5016656 0.24730495 
  CA	3.8325818 -4.778936 -0.17775956 
  CA	5.2987638 -4.654151 -0.03900826 
  CA	6.1191287 -5.5234957 -0.3143901 
  CA	5.608679 -3.417342 0.26898202 
  CA	6.9564986 -3.1086586 0.51267684 
  CA	6.8192234 -2.6015446 1.8729384 
  CA	5.885974 -3.0554745 2.5384128 
  CA	9.04837 -4.2714057 3.5292554 
  CA	8.807388 -5.254887 4.219056 
  CA	8.021507 -2.4528701 2.4290304 
  CA	8.28765 -3.0092247 3.7091825 
40
 generated by JK
  CA	-4.948287 0.8659549 1.8370576 
  CA	-5.963857 1.7737058 2.271881 
  CA	-6.155299 2.8402414 1.219796 
  CA	-7.267646 3.3187585 1.0313365 
  CA	-5.010885 3.469273 0.86537737 
  CA	-4.810053 4.832355 0.45877647 
  CA	-3.3353124 4.7910986 0.1606603 
  CA	-2.8359685 5.5223517 -0.6918066 
  CA	-2.7428837 3.6660652 0.64843214 
  CA	-1.4496794 3.1535869 0.3139732 
  CA	-1.3332747 1.664701 0.519602 
  CA	-1.4968323 1.1856846 1.6462561 
  CA	-0.38258162 1.1720318 -0.2824862 
  CA	0.79713804 0.60492885 0.31206322 
  CA	0.4000191 -0.76413375 0.70573884 
  CA	-0.31109834 -1.3732401 -0.08855741 
  CA	0.36581403 -1.0181179 2.048669 
  CA	1.6042188 -1.4116015 2.6064324 
  CA	2.1225421 -1.4569273 1.233035 
  CA	3.304988 -1.1748276 1.0502732 
  CA	1.1175159 -1.1413219 0.36766708 
  CA	0.40719983 0.039050773 0.73034066 
  CA	1.4460689 0.27706927 1.7319777 
  CA	2.1590958 1.2610137 1.5916744 
  CA	2.0426614 -0.9297976 1.9373999 
  CA	3.2175915 -1.1819794 1.1348764 
  CA	3.82518 -2.5618143 1.0691395 
  CA	4.9802523 -2.6882083 1.5056381 
  CA	3.2721858 -3.4923728 0.23904453 
  CA	3.8294191 -4.767891 -0.19410723 
  CA	5.2982645 -4.650175 -0.048262447 
  CA	6.116444 -5.523439 -0.32406464 
  CA	5.609984 -3.410027 0.26366013 
  CA	6.9604983 -3.1000254 0.51624256 
  CA	6.81498 -2.59044 1.8723269 
  CA	5.8826256 -3.0426292 2.5385752 
  CA	9.045358 -4.272068 3.5370755 
  CA	8.805277 -5.259102 4.222629 
  CA	8.024245 -2.4460478 2.4302187 
  CA	8.28913 -3.0083082 3.7143934 
