40
 generated by JK
  CA	2.4402013 -6.022851 3.1216824 
  CA	3.1509027 -4.910497 2.6066694 
  CA	2.3062537 -3.813447 3.0701108 
  CA	1.1694402 -4.063723 3.4426985 
  CA	2.787497 -2.593206 2.8913953 
  CA	1.9588671 -1.4752105 3.1010022 
  CA	2.862277 -0.37815902 3.4828055 
  CA	3.9045494 -0.6356123 4.0956874 
  CA	2.2779562 0.7705685 3.7090259 
  CA	2.8295577 1.705652 4.6038914 
  CA	2.4088976 3.0716252 4.201773 
  CA	1.9393568 3.2509615 3.0860496 
  CA	3.012702 4.100137 4.838453 
  CA	3.1087368 5.357624 4.146702 
  CA	3.914662 5.258609 2.8598223 
  CA	4.002264 4.203767 2.215463 
  CA	4.1006703 6.4191256 2.2263916 
  CA	3.4053142 7.3567276 2.970168 
  CA	2.7340398 6.3050346 3.763273 
  CA	3.3850787 5.290667 4.001817 
  CA	1.4382693 6.1786413 3.5382104 
  CA	0.76099694 6.3567476 4.716559 
  CA	1.4802169 7.5784316 5.1332507 
  CA	1.3949674 8.557517 4.3966007 
  CA	2.6004128 7.409074 5.859989 
  CA	3.7156591 8.318044 5.813626 
  CA	3.2430334 9.550149 6.461325 
  CA	3.1063278 10.612169 5.8608165 
  CA	3.1168923 9.469845 7.7769914 
  CA	2.9284472 10.76499 8.290734 
  CA	3.0543752 11.561568 7.039445 
  CA	2.2478337 12.454791 6.7788677 
  CA	4.1453295 11.375135 6.2965164 
  CA	4.465217 12.197349 5.1934757 
  CA	4.122039 13.582525 5.599979 
  CA	4.161439 13.8566675 6.780771 
  CA	2.643929 15.11897 2.7277372 
  CA	1.5874453 15.326041 3.317655 
  CA	3.7603962 14.469447 4.671727 
  CA	3.646236 14.151413 3.264343 
40
 generated by JK
  CA	2.4251668 -5.9998713 3.1192887 
  CA	3.1393692 -4.889584 2.5959752 
  CA	2.2941744 -3.7953744 3.0595427 
  CA	1.1713818 -4.0505652 3.4363399 
  CA	2.7714891 -2.5801325 2.8727057 
  CA	1.9417226 -1.4588064 3.0904157 
  CA	2.842579 -0.3585281 3.4677892 
  CA	3.8776991 -0.61481225 4.0818214 
  CA	2.2636764 0.78960836 3.6935503 
  CA	2.8198717 1.7243211 4.586281 
  CA	2.4090874 3.084782 4.185429 
  CA	1.9370894 3.2545025 3.064895 
  CA	3.0140953 4.1057787 4.8304358 
  CA	3.1087303 5.358311 4.1354456 
  CA	3.9175856 5.26043 2.8511791 
  CA	4.010159 4.205241 2.2064593 
  CA	4.1007 6.4218116 2.2221253 
  CA	3.4069834 7.3590407 2.9691553 
  CA	2.7326202 6.309575 3.7661095 
  CA	3.3848512 5.3036795 4.001344 
  CA	1.4507093 6.1820683 3.5438633 
  CA	0.77436936 6.363201 4.7129345 
  CA	1.4920298 7.5812454 5.130706 
  CA	1.4074107 8.554683 4.392742 
  CA	2.6095877 7.413957 5.851987 
  CA	3.7207527 8.313758 5.805983 
  CA	3.2502878 9.546626 6.46351 
  CA	3.116335 10.610102 5.8598795 
  CA	3.1362677 9.473005 7.7804213 
  CA	2.947974 10.755834 8.287522 
  CA	3.068664 11.538705 7.034987 
  CA	2.2645557 12.423108 6.7822456 
  CA	4.1559715 11.355998 6.3013916 
  CA	4.47822 12.182706 5.1993694 
  CA	4.127736 13.557701 5.608527 
  CA	4.173367 13.824053 6.791118 
  CA	2.6619942 15.091599 2.7482018 
  CA	1.6109725 15.2960615 3.3392472 
  CA	3.7681725 14.444004 4.680391 
  CA	3.6589332 14.118329 3.2844484 
40
 generated by JK
  CA	2.4143207 -6.020937 3.1227167 
  CA	3.1228342 -4.9100914 2.5925972 
  CA	2.2820609 -3.8162708 3.0620177 
  CA	1.1542779 -4.0688043 3.436692 
  CA	2.7654233 -2.5982137 2.8821805 
  CA	1.9378669 -1.4762487 3.0934162 
  CA	2.8454816 -0.37623957 3.476817 
  CA	3.8889985 -0.6378632 4.090255 
  CA	2.2611237 0.77144295 3.7042692 
  CA	2.8184683 1.711212 4.5950747 
  CA	2.4067805 3.0692186 4.195612 
  CA	1.9352516 3.2493868 3.0791416 
  CA	3.0119693 4.097496 4.830851 
  CA	3.096148 5.3535333 4.136487 
  CA	3.9070468 5.2591934 2.8594213 
  CA	3.9991324 4.2076135 2.2131906 
  CA	4.096287 6.4207125 2.224549 
  CA	3.3979495 7.362298 2.9649663 
  CA	2.7290418 6.3140535 3.76999 
  CA	3.3774521 5.3036895 4.005123 
  CA	1.4395295 6.19437 3.5446517 
  CA	0.75418496 6.376853 4.717741 
  CA	1.4771298 7.596124 5.1318703 
  CA	1.3976774 8.574711 4.3969054 
  CA	2.5947893 7.422561 5.8575478 
  CA	3.719647 8.333244 5.812113 
  CA	3.2509868 9.567595 6.4642777 
  CA	3.118936 10.634313 5.8623915 
  CA	3.1277316 9.484274 7.783066 
  CA	2.9441671 10.7702 8.293811 
  CA	3.0745866 11.566468 7.0418177 
  CA	2.258137 12.455945 6.7920275 
  CA	4.162157 11.378821 6.3019953 
  CA	4.4874463 12.204198 5.201015 
  CA	4.142776 13.584065 5.606989 
  CA	4.1898174 13.858991 6.789074 
  CA	2.6722748 15.130937 2.750721 
  CA	1.620805 15.338611 3.341772 
  CA	3.7829645 14.4728155 4.6812515 
  CA	3.6688993 14.154721 3.280662 
40
 generated by JK
  CA	2.4361053 -6.057542 3.1074789 
  CA	3.1423447 -4.9442396 2.5919926 
  CA	2.3063157 -3.8448205 3.0668151 
  CA	1.1655647 -4.0872087 3.4373639 
  CA	2.789347 -2.61285 2.8870988 
  CA	1.9616573 -1.4941242 3.0933177 
  CA	2.8726273 -0.3984522 3.4822874 
  CA	3.9219437 -0.66582143 4.1037097 
  CA	2.277358 0.75948054 3.7191787 
  CA	2.8333218 1.6947572 4.612941 
  CA	2.407977 3.0666964 4.2043834 
  CA	1.9377681 3.2506914 3.089043 
  CA	3.0070765 4.0929794 4.841443 
  CA	3.1011121 5.35366 4.143108 
  CA	3.9072044 5.2537217 2.858814 
  CA	3.986325 4.203449 2.2181454 
  CA	4.09165 6.4251122 2.2278557 
  CA	3.397297 7.3663974 2.9674492 
  CA	2.7333682 6.316104 3.7649555 
  CA	3.3805315 5.2948112 3.9957979 
  CA	1.4397713 6.1904674 3.5428457 
  CA	0.7476152 6.3758597 4.7228007 
  CA	1.4773109 7.602172 5.13453 
  CA	1.3903933 8.590988 4.4038196 
  CA	2.5968146 7.434653 5.856024 
  CA	3.7158678 8.342423 5.8122654 
  CA	3.2465677 9.581542 6.466459 
  CA	3.1086593 10.64893 5.871767 
  CA	3.113831 9.504169 7.7865133 
  CA	2.9222937 10.794809 8.301229 
  CA	3.0420325 11.599514 7.0455966 
  CA	2.2305968 12.490977 6.790226 
  CA	4.137493 11.418014 6.302911 
  CA	4.46347 12.242214 5.193338 
  CA	4.1222196 13.632127 5.602052 
  CA	4.1640244 13.906137 6.7845154 
  CA	2.6333869 15.181604 2.73456 
  CA	1.5788329 15.388382 3.331613 
  CA	3.7546756 14.52456 4.6743717 
  CA	3.6342952 14.21221 3.2669747 
40
 generated by JK
  CA	2.430736 -6.0071077 3.1227477 
  CA	3.1397128 -4.8976784 2.5961564 
  CA	2.2937987 -3.8055577 3.0655751 
  CA	1.1645615 -4.056433 3.4389596 
  CA	2.7786863 -2.5851605 2.8868554 
  CA	1.9499452 -1.4663185 3.0992987 
  CA	2.8531153 -0.3679097 3.479666 
  CA	3.891564 -0.6264935 4.092038 
  CA	2.2706296 0.78043336 3.7050703 
  CA	2.8261304 1.7189238 4.5934405 
  CA	2.4095385 3.0774772 4.196028 
  CA	1.9404163 3.252958 3.0814946 
  CA	3.0119317 4.105596 4.834061 
  CA	3.101613 5.363058 4.138156 
  CA	3.9121435 5.2636437 2.8539414 
  CA	4.001763 4.2109437 2.2109935 
  CA	4.0962963 6.4231105 2.222509 
  CA	3.3986778 7.3602343 2.9676042 
  CA	2.7267327 6.3102336 3.763012 
  CA	3.377706 5.2985463 4.0004873 
  CA	1.4368013 6.185859 3.538362 
  CA	0.7604704 6.3665338 4.710929 
  CA	1.4825342 7.584598 5.1305113 
  CA	1.3974799 8.56233 4.394095 
  CA	2.5981877 7.415675 5.8543363 
  CA	3.7123306 8.321719 5.80921 
  CA	3.2447815 9.553872 6.4597735 
  CA	3.1129472 10.615547 5.8584347 
  CA	3.1225197 9.471385 7.7772007 
  CA	2.9351552 10.757301 8.28714 
  CA	3.0619903 11.549301 7.0373178 
  CA	2.2529004 12.439467 6.7830133 
  CA	4.1511335 11.361675 6.2986565 
  CA	4.4703183 12.189574 5.1967316 
  CA	4.128416 13.568972 5.6052704 
  CA	4.1720433 13.841037 6.785633 
  CA	2.658538 15.10379 2.7417743 
  CA	1.603775 15.308671 3.332885 
  CA	3.7678516 14.455282 4.67658 
  CA	3.6566753 14.134781 3.2730684 
40
 generated by JK
  CA	2.4394717 -6.011986 3.1224558 
  CA	3.1496863 -4.902067 2.6085327 
  CA	2.306476 -3.8026001 3.066795 
  CA	1.1773213 -4.054306 3.4412873 
  CA	2.7842867 -2.5834296 2.881541 
  CA	1.9539907 -1.4643244 3.0917442 
  CA	2.8555644 -0.37112382 3.473552 
  CA	3.8991249 -0.6313366 4.087847 
  CA	2.272803 0.77866304 3.7028813 
  CA	2.8243668 1.7117672 4.6004786 
  CA	2.4069958 3.079084 4.195189 
  CA	1.9367741 3.2573192 3.0763397 
  CA	3.0134344 4.1016436 4.834504 
  CA	3.1124742 5.359187 4.1436834 
  CA	3.9157012 5.2596855 2.8592713 
  CA	4.0047846 4.1991596 2.2145734 
  CA	4.0983276 6.419738 2.2279885 
  CA	3.405775 7.3557897 2.975531 
  CA	2.734971 6.305596 3.7683702 
  CA	3.3872764 5.2937727 4.0079036 
  CA	1.4445959 6.1784377 3.5428174 
  CA	0.76576984 6.35508 4.7192726 
  CA	1.4855666 7.575013 5.1348953 
  CA	1.40101 8.553154 4.394233 
  CA	2.6059597 7.4040937 5.857458 
  CA	3.7192397 8.311036 5.8099384 
  CA	3.2458224 9.5444765 6.462629 
  CA	3.1054854 10.608022 5.863211 
  CA	3.123059 9.467757 7.7785583 
  CA	2.9337263 10.75856 8.294514 
  CA	3.0555778 11.555263 7.0405416 
  CA	2.2529612 12.445421 6.780876 
  CA	4.145931 11.368304 6.298465 
  CA	4.4677725 12.186108 5.1969233 
  CA	4.1182055 13.573198 5.6020374 
  CA	4.1589246 13.84232 6.77958 
  CA	2.644286 15.110174 2.7340605 
  CA	1.5908759 15.317455 3.327024 
  CA	3.7569168 14.456555 4.6755037 
  CA	3.643284 14.139479 3.270957 
40
 generated by JK
  CA	2.4341974 -6.00504 3.1284811 
  CA	3.1452017 -4.893194 2.6026728 
  CA	2.2987242 -3.797057 3.0677469 
  CA	1.1750634 -4.053734 3.4416056 
  CA	2.7772253 -2.5803294 2.884676 
  CA	1.9489403 -1.4640868 3.095959 
  CA	2.846697 -0.36334255 3.4762573 
  CA	3.8884594 -0.6286727 4.0881267 
  CA	2.268692 0.78246015 3.7047799 
  CA	2.8208137 1.723076 4.594974 
  CA	2.4104276 3.0797408 4.193792 
  CA	1.9366435 3.2524278 3.074984 
  CA	3.0135603 4.1026845 4.8289385 
  CA	3.104446 5.357478 4.1339574 
  CA	3.9126592 5.2602854 2.8534296 
  CA	4.004609 4.2023077 2.2080913 
  CA	4.0961847 6.420671 2.221553 
  CA	3.39879 7.3597646 2.9676652 
  CA	2.7290697 6.3088713 3.7680163 
  CA	3.3803322 5.301635 4.0004063 
  CA	1.4395123 6.185117 3.5379264 
  CA	0.76193297 6.3692064 4.7113094 
  CA	1.4852548 7.5864983 5.128099 
  CA	1.4012414 8.564401 4.392905 
  CA	2.6021934 7.4162865 5.8496485 
  CA	3.7175553 8.322474 5.8033357 
  CA	3.2491274 9.556614 6.4584484 
  CA	3.1120586 10.623922 5.8564453 
  CA	3.1278346 9.473457 7.776284 
  CA	2.938904 10.761843 8.287261 
  CA	3.0605729 11.552294 7.036775 
  CA	2.2528923 12.442105 6.7824993 
  CA	4.149986 11.3647175 6.297364 
  CA	4.473736 12.186228 5.1971207 
  CA	4.123578 13.570414 5.6008863 
  CA	4.167503 13.838504 6.7813897 
  CA	2.654742 15.107257 2.7375705 
  CA	1.6025009 15.313336 3.3310008 
  CA	3.7632387 14.455038 4.670322 
  CA	3.65172 14.137311 3.2730079 
40
 generated by JK
  CA	2.4556375 -6.0217886 3.1095858 
  CA	3.1658936 -4.908762 2.589158 
  CA	2.32299 -3.81318 3.0522966 
  CA	1.195613 -4.0669394 3.4223404 
  CA	2.8026752 -2.5910842 2.871032 
  CA	1.9661329 -1.4722873 3.0737708 
  CA	2.869455 -0.37395528 3.459404 
  CA	3.9151685 -0.64338213 4.0687838 
  CA	2.2824545 0.7682497 3.692873 
  CA	2.8328767 1.7085848 4.5839953 
  CA	2.4240866 3.0620985 4.181123 
  CA	1.9550334 3.2424555 3.0653613 
  CA	3.0225396 4.086277 4.820262 
  CA	3.1151342 5.3425803 4.1351037 
  CA	3.9197505 5.2403197 2.8495324 
  CA	4.0129175 4.18783 2.1999965 
  CA	4.106285 6.404942 2.2139232 
  CA	3.4073796 7.344642 2.9626517 
  CA	2.7422717 6.299041 3.7668164 
  CA	3.387748 5.2886114 4.0009875 
  CA	1.4465886 6.1750646 3.5447464 
  CA	0.76734054 6.360075 4.713776 
  CA	1.4880481 7.575588 5.1227016 
  CA	1.3994496 8.553782 4.39123 
  CA	2.5994008 7.4040565 5.847701 
  CA	3.7132375 8.316307 5.806225 
  CA	3.244118 9.548694 6.455269 
  CA	3.107102 10.615799 5.8628035 
  CA	3.116997 9.469652 7.777812 
  CA	2.934531 10.76059 8.2994375 
  CA	3.0567083 11.559962 7.0404115 
  CA	2.2437167 12.448669 6.7925987 
  CA	4.1353135 11.377303 6.3059893 
  CA	4.4597383 12.193162 5.205948 
  CA	4.1069965 13.573893 5.6087117 
  CA	4.1515765 13.844889 6.7890368 
  CA	2.6271904 15.122263 2.744924 
  CA	1.5725502 15.330812 3.3421006 
  CA	3.7438655 14.458887 4.6797237 
  CA	3.6273518 14.146668 3.278504 
40
 generated by JK
  CA	2.4183671 -6.0609407 3.1254108 
  CA	3.1294403 -4.9438133 2.6061225 
  CA	2.2900724 -3.8448136 3.0848753 
  CA	1.1496254 -4.0901437 3.456806 
  CA	2.7734857 -2.6214385 2.8995676 
  CA	1.9521768 -1.4965122 3.1136653 
  CA	2.8598185 -0.39748624 3.4950254 
  CA	3.9027753 -0.6608755 4.111577 
  CA	2.2673666 0.7511572 3.7201512 
  CA	2.8275678 1.6897062 4.615664 
  CA	2.403784 3.0617087 4.2095113 
  CA	1.9242392 3.241509 3.0887408 
  CA	3.0075717 4.08675 4.8431754 
  CA	3.0981114 5.344584 4.140098 
  CA	3.9084668 5.2511425 2.8612874 
  CA	3.9923215 4.203197 2.2175307 
  CA	4.0948668 6.4213123 2.2291431 
  CA	3.400962 7.3738594 2.9595342 
  CA	2.7362556 6.315079 3.7620702 
  CA	3.386919 5.300869 3.9885168 
  CA	1.4368128 6.1955767 3.5377052 
  CA	0.75026286 6.383972 4.723011 
  CA	1.4733382 7.608391 5.1376033 
  CA	1.3962846 8.592829 4.4046288 
  CA	2.6015298 7.438877 5.8568473 
  CA	3.7280898 8.355111 5.8135557 
  CA	3.2529426 9.593959 6.4661856 
  CA	3.1184456 10.662749 5.8671017 
  CA	3.119873 9.516976 7.7831736 
  CA	2.934489 10.811872 8.290411 
  CA	3.0581737 11.610004 7.03645 
  CA	2.2419581 12.505046 6.77691 
  CA	4.153521 11.4242935 6.289014 
  CA	4.480844 12.249505 5.177393 
  CA	4.132219 13.637562 5.58657 
  CA	4.17518 13.914838 6.769203 
  CA	2.6508944 15.192896 2.7127805 
  CA	1.5967159 15.401065 3.3017437 
  CA	3.7716274 14.535521 4.655041 
  CA	3.6515849 14.223563 3.2487168 
40
 generated by JK
  CA	2.4265666 -6.025031 3.1173263 
  CA	3.1411867 -4.910105 2.5988598 
  CA	2.2937143 -3.8121727 3.0620463 
  CA	1.1618067 -4.0676317 3.439099 
  CA	2.7724628 -2.5987947 2.881596 
  CA	1.947983 -1.4750175 3.0955923 
  CA	2.850449 -0.3748689 3.479212 
  CA	3.8928792 -0.62917644 4.095963 
  CA	2.266625 0.7720559 3.7033541 
  CA	2.8217833 1.7106462 4.6001515 
  CA	2.4093676 3.0745823 4.1969323 
  CA	1.9369926 3.245914 3.0764818 
  CA	3.0141788 4.0979915 4.8326 
  CA	3.1029613 5.3525524 4.1403565 
  CA	3.9108405 5.259794 2.861262 
  CA	4.006062 4.2036324 2.2130253 
  CA	4.097607 6.417944 2.2244842 
  CA	3.4040554 7.358513 2.9654946 
  CA	2.730606 6.306832 3.7664661 
  CA	3.38289 5.299326 4.000484 
  CA	1.4407128 6.181888 3.5415173 
  CA	0.76043737 6.3600264 4.7178454 
  CA	1.4767638 7.5897818 5.128762 
  CA	1.397256 8.563061 4.395477 
  CA	2.6011813 7.4137583 5.8580046 
  CA	3.7187195 8.321702 5.8132844 
  CA	3.246056 9.552911 6.4633183 
  CA	3.1137471 10.616915 5.858984 
  CA	3.126455 9.4747505 7.779123 
  CA	2.9367394 10.768866 8.289775 
  CA	3.0660605 11.555623 7.0390625 
  CA	2.2530963 12.446058 6.7841277 
  CA	4.151649 11.371776 6.294813 
  CA	4.481066 12.195227 5.1937127 
  CA	4.131544 13.576958 5.600979 
  CA	4.177205 13.851072 6.782565 
  CA	2.6624477 15.117106 2.7365031 
  CA	1.6085815 15.32359 3.3257723 
  CA	3.7714717 14.463934 4.674308 
  CA	3.6587534 14.141817 3.2767084 
