40
 generated by JK
  CA	8.364942 1.0506418 -4.2493243 
  CA	9.066766 2.269151 -4.04109 
  CA	8.995842 2.5486066 -2.5612786 
  CA	8.745701 1.6408973 -1.7599868 
  CA	9.038974 3.8588634 -2.2015092 
  CA	8.735029 4.1952815 -0.8497262 
  CA	7.6152906 3.2950768 -0.42851037 
  CA	6.45848 3.5833225 -0.72914195 
  CA	7.9762125 2.0666125 -0.01708731 
  CA	6.996068 1.0400021 0.06176865 
  CA	5.7039332 1.6006145 -0.38578463 
  CA	4.9123144 2.0889506 0.43227547 
  CA	5.352655 1.395801 -1.6532023 
  CA	4.0375075 1.7086267 -2.111418 
  CA	3.1013503 1.2585237 -1.062423 
  CA	3.4223862 1.2322673 0.1200092 
  CA	1.8996964 0.817621 -1.4723324 
  CA	0.955368 0.29355022 -0.53624535 
  CA	1.2027187 1.0193288 0.7451654 
  CA	1.3249503 2.2468083 0.7826636 
  CA	1.3962309 0.24189657 1.8418188 
  CA	1.7801802 0.8539356 3.0821095 
  CA	0.80008113 1.9714758 3.31787 
  CA	-0.33415484 1.7514752 3.7566786 
  CA	1.3278666 3.2236848 3.2931452 
  CA	0.5799754 4.297974 3.815895 
  CA	0.0886834 3.890619 5.1541615 
  CA	-0.29742533 2.7505653 5.34377 
  CA	0.3188509 4.7184844 6.1635237 
  CA	0.130644 4.296591 7.5313663 
  CA	1.0428268 3.1083226 7.7047434 
  CA	2.2269828 3.2845178 8.013044 
  CA	0.42439932 1.9366589 7.9426923 
  CA	-0.91466236 1.734348 7.458789 
  CA	-1.2230114 2.89038 6.5712886 
  CA	-1.2481257 4.0412 7.018047 
  CA	-1.9829284 0.36113414 5.999162 
  CA	-3.07706 0.49362323 6.611624 
  CA	-1.6985015 2.5805902 5.33448 
  CA	-1.6339086 1.2293993 4.890007 
40
 generated by JK
  CA	8.364927 1.0507042 -4.249267 
  CA	9.066752 2.2692227 -4.0410385 
  CA	8.995818 2.5486846 -2.5612495 
  CA	8.745687 1.6409867 -1.7599722 
  CA	9.03893 3.8589334 -2.2014718 
  CA	8.734971 4.1953254 -0.8496846 
  CA	7.6152267 3.2951171 -0.42846388 
  CA	6.458407 3.5833669 -0.72912526 
  CA	7.976151 2.066634 -0.017057419 
  CA	6.996029 1.0400423 0.06175691 
  CA	5.7038865 1.6006198 -0.38578802 
  CA	4.9122567 2.0889754 0.43225655 
  CA	5.352637 1.3957512 -1.6532097 
  CA	4.037546 1.7085974 -2.1114466 
  CA	3.1013863 1.2585028 -1.0624563 
  CA	3.4224114 1.2322252 0.11997722 
  CA	1.8997277 0.8176367 -1.4723886 
  CA	0.95537806 0.29354566 -0.5363122 
  CA	1.2026767 1.0193404 0.74510705 
  CA	1.3248812 2.246822 0.78259444 
  CA	1.3962128 0.24187908 1.8417681 
  CA	1.7801554 0.853953 3.0820553 
  CA	0.80004406 1.9714849 3.317793 
  CA	-0.33416963 1.7514886 3.756611 
  CA	1.3278289 3.2236857 3.2930932 
  CA	0.5799389 4.2979484 3.815834 
  CA	0.088655904 3.8905666 5.154137 
  CA	-0.2974439 2.750516 5.3437448 
  CA	0.31881815 4.718445 6.163483 
  CA	0.13064624 4.296552 7.5313373 
  CA	1.0428382 3.1083 7.7047305 
  CA	2.2269943 3.2845232 8.013002 
  CA	0.42439547 1.9366424 7.942689 
  CA	-0.91464555 1.7343526 7.458763 
  CA	-1.2229902 2.8903642 6.5712543 
  CA	-1.2480836 4.04119 7.018001 
  CA	-1.982871 0.36106634 5.999162 
  CA	-3.077 0.4935539 6.611627 
  CA	-1.6984693 2.5805516 5.334459 
  CA	-1.6338811 1.2293701 4.8900023 
40
 generated by JK
  CA	8.364901 1.0505908 -4.24931 
  CA	9.066716 2.2691047 -4.041093 
  CA	8.995799 2.5485744 -2.561291 
  CA	8.745664 1.6408648 -1.76001 
  CA	9.038933 3.8588321 -2.201517 
  CA	8.734976 4.195242 -0.8497234 
  CA	7.615248 3.2950456 -0.42849833 
  CA	6.4584265 3.583295 -0.7291482 
  CA	7.9761715 2.0665815 -0.017074913 
  CA	6.996046 1.0399942 0.061780214 
  CA	5.703908 1.6006021 -0.38576704 
  CA	4.9122868 2.0889604 0.4322697 
  CA	5.3526297 1.3957766 -1.6531858 
  CA	4.0375166 1.708606 -2.111405 
  CA	3.1013436 1.2585027 -1.062407 
  CA	3.4223742 1.2322382 0.12001659 
  CA	1.8996993 0.81760406 -1.4723161 
  CA	0.95537835 0.29351676 -0.536242 
  CA	1.202683 1.0193049 0.7451621 
  CA	1.3249187 2.246758 0.7826613 
  CA	1.3962041 0.24186692 1.8418148 
  CA	1.7801638 0.8539332 3.0820954 
  CA	0.8000691 1.9714509 3.3178396 
  CA	-0.33416426 1.7514433 3.7566671 
  CA	1.3278394 3.2236567 3.2931297 
  CA	0.57995594 4.297927 3.815854 
  CA	0.08866966 3.89057 5.1541457 
  CA	-0.2974387 2.7505279 5.3437595 
  CA	0.318847 4.718444 6.163494 
  CA	0.1306554 4.296592 7.531345 
  CA	1.0428288 3.1083314 7.7047305 
  CA	2.2269819 3.2845418 8.013018 
  CA	0.42438996 1.9366934 7.942678 
  CA	-0.9146587 1.7344024 7.4587793 
  CA	-1.2230262 2.890404 6.571268 
  CA	-1.248134 4.041222 7.018022 
  CA	-1.9829383 0.36115998 5.999162 
  CA	-3.0770566 0.493651 6.6116247 
  CA	-1.698519 2.5806193 5.3344755 
  CA	-1.6339437 1.2294418 4.8900065 
40
 generated by JK
  CA	8.364075 1.0496044 -4.2492075 
  CA	9.065452 2.2679925 -4.041116 
  CA	8.994444 2.547488 -2.5614197 
  CA	8.74433 1.6394765 -1.7599486 
  CA	9.037472 3.8574574 -2.2016447 
  CA	8.733613 4.1940684 -0.8499859 
  CA	7.6139865 3.2938776 -0.42905337 
  CA	6.457124 3.5822587 -0.72968006 
  CA	7.9749436 2.0654728 -0.01761198 
  CA	6.9951878 1.039109 0.06149131 
  CA	5.703006 1.5998266 -0.38581574 
  CA	4.9119167 2.0882697 0.43204945 
  CA	5.351254 1.395166 -1.6529393 
  CA	4.0361705 1.7077104 -2.110657 
  CA	3.1004536 1.2576975 -1.0616323 
  CA	3.4215083 1.2316673 0.120596096 
  CA	1.8990974 0.816658 -1.4713813 
  CA	0.9551327 0.2923872 -0.5353683 
  CA	1.2024384 1.018397 0.74578184 
  CA	1.3249445 2.2458835 0.7832139 
  CA	1.3957543 0.24119437 1.8421333 
  CA	1.7797103 0.8532886 3.0823164 
  CA	0.8000213 1.9708658 3.3180003 
  CA	-0.33404946 1.7504907 3.7569041 
  CA	1.327627 3.223085 3.2931888 
  CA	0.57978976 4.2972736 3.8155904 
  CA	0.08893074 3.8901849 5.153563 
  CA	-0.29720485 2.750413 5.3432193 
  CA	0.3193167 4.7179427 6.162706 
  CA	0.13115524 4.2963204 7.5304346 
  CA	1.0433035 3.108156 7.7038603 
  CA	2.2275338 3.2843587 8.012021 
  CA	0.42502892 1.9368229 7.9419937 
  CA	-0.9142991 1.734708 7.45844 
  CA	-1.2229102 2.8904252 6.570836 
  CA	-1.2482146 4.041012 7.0175524 
  CA	-1.9831986 0.36171925 5.9988027 
  CA	-3.0771394 0.49423048 6.6113176 
  CA	-1.6984949 2.581009 5.3341613 
  CA	-1.6341606 1.2299042 4.88964 
40
 generated by JK
  CA	8.364075 1.0499458 -4.249243 
  CA	9.065901 2.268459 -4.0409904 
  CA	8.99506 2.5480015 -2.5613995 
  CA	8.744951 1.6403403 -1.7601401 
  CA	9.038258 3.8581517 -2.2015996 
  CA	8.734353 4.1945953 -0.84984565 
  CA	7.6147676 3.2944622 -0.42862508 
  CA	6.4579377 3.5827177 -0.72930145 
  CA	7.9757185 2.0660558 -0.017244399 
  CA	6.9957304 1.0396522 0.06183055 
  CA	5.703564 1.6003487 -0.3857084 
  CA	4.912021 2.0886507 0.43220145 
  CA	5.3521204 1.3956498 -1.6530263 
  CA	4.037028 1.7083815 -2.111104 
  CA	3.100869 1.2581772 -1.0621585 
  CA	3.4218507 1.2318593 0.12014103 
  CA	1.8994218 0.8171942 -1.4719725 
  CA	0.9551747 0.2930086 -0.53591526 
  CA	1.2024028 1.0187879 0.7453928 
  CA	1.3246647 2.2461529 0.7829037 
  CA	1.3959305 0.24138474 1.8419123 
  CA	1.7799208 0.8536053 3.082061 
  CA	0.80009043 1.9709377 3.3177705 
  CA	-0.3340237 1.7508852 3.756581 
  CA	1.327804 3.2230983 3.2929618 
  CA	0.58004266 4.297209 3.8156586 
  CA	0.08875568 3.8900454 5.153905 
  CA	-0.29744852 2.7502654 5.343593 
  CA	0.3190327 4.7178535 6.1632037 
  CA	0.13093339 4.296318 7.531092 
  CA	1.0429586 3.1083264 7.7045455 
  CA	2.2269206 3.284476 8.012706 
  CA	0.42464104 1.9370058 7.9424696 
  CA	-0.91443175 1.7347956 7.4586105 
  CA	-1.2229393 2.8905773 6.5711083 
  CA	-1.2479874 4.041259 7.0177293 
  CA	-1.9829967 0.36156893 5.9990344 
  CA	-3.0769403 0.49396995 6.6114726 
  CA	-1.6986164 2.580957 5.3344216 
  CA	-1.6341037 1.2298521 4.8900275 
40
 generated by JK
  CA	8.364603 1.0502539 -4.2494497 
  CA	9.0664835 2.268761 -4.041173 
  CA	8.995609 2.548272 -2.5614378 
  CA	8.745469 1.6406107 -1.7601824 
  CA	9.038804 3.8585007 -2.2016392 
  CA	8.73486 4.1949387 -0.8498701 
  CA	7.6151905 3.2947757 -0.42859727 
  CA	6.45836 3.5829928 -0.72921866 
  CA	7.976137 2.0663722 -0.017178893 
  CA	6.9960146 1.0398742 0.06181997 
  CA	5.703901 1.6005516 -0.38578355 
  CA	4.9123116 2.0888348 0.43223143 
  CA	5.3525343 1.3958625 -1.6531997 
  CA	4.037333 1.7086486 -2.1113553 
  CA	3.1011248 1.2584734 -1.0623529 
  CA	3.4221377 1.2322068 0.12004787 
  CA	1.8995578 0.81747293 -1.4722025 
  CA	0.9552476 0.29335344 -0.5361084 
  CA	1.2025785 1.0191075 0.7452928 
  CA	1.3248398 2.2464862 0.78281355 
  CA	1.3961009 0.24170476 1.841909 
  CA	1.7801158 0.8538306 3.082154 
  CA	0.8001751 1.9712309 3.3179166 
  CA	-0.33399415 1.7512169 3.7567127 
  CA	1.3279359 3.223401 3.2931476 
  CA	0.580099 4.2976274 3.8159018 
  CA	0.08871192 3.8903737 5.154149 
  CA	-0.29747555 2.7504206 5.343754 
  CA	0.31892547 4.718251 6.163535 
  CA	0.13068397 4.296522 7.5313926 
  CA	1.0427203 3.1083882 7.7048106 
  CA	2.2267644 3.284525 8.013125 
  CA	0.42433408 1.936883 7.9427133 
  CA	-0.91473013 1.7346017 7.4587774 
  CA	-1.223118 2.8905234 6.571269 
  CA	-1.2481705 4.0412793 7.017973 
  CA	-1.983158 0.36139813 5.999083 
  CA	-3.0771708 0.49382958 6.611537 
  CA	-1.6987115 2.5808227 5.3344665 
  CA	-1.6341625 1.2296658 4.8900013 
40
 generated by JK
  CA	8.3640995 1.0497925 -4.249515 
  CA	9.066014 2.2683148 -4.0411677 
  CA	8.995157 2.5478864 -2.5615246 
  CA	8.745046 1.6402626 -1.7602934 
  CA	9.038354 3.8580608 -2.2016735 
  CA	8.734405 4.194511 -0.84995323 
  CA	7.614788 3.29439 -0.4286203 
  CA	6.4578943 3.5825841 -0.7292516 
  CA	7.9757895 2.066061 -0.017247647 
  CA	6.9957504 1.0397849 0.061817765 
  CA	5.7036624 1.6004612 -0.38585258 
  CA	4.9121537 2.0887074 0.43207514 
  CA	5.352221 1.3958212 -1.6532464 
  CA	4.037047 1.7085713 -2.1112874 
  CA	3.1008458 1.2583654 -1.062269 
  CA	3.4218178 1.2320963 0.120094955 
  CA	1.899398 0.81730425 -1.472092 
  CA	0.95508194 0.29304636 -0.5360086 
  CA	1.2023463 1.0188191 0.7453918 
  CA	1.324595 2.2461176 0.78291935 
  CA	1.395891 0.24140662 1.8419402 
  CA	1.7799828 0.85370135 3.0821214 
  CA	0.80025315 1.9709703 3.3178513 
  CA	-0.33374196 1.7509054 3.7566457 
  CA	1.32798 3.2230916 3.2930562 
  CA	0.5802179 4.2971983 3.8157945 
  CA	0.088776276 3.8900342 5.1540184 
  CA	-0.29750976 2.7501996 5.343594 
  CA	0.31906334 4.7179446 6.1633983 
  CA	0.13081765 4.296333 7.531236 
  CA	1.0426813 3.1084094 7.704754 
  CA	2.226622 3.2845209 8.013051 
  CA	0.42432404 1.9371004 7.942671 
  CA	-0.9147587 1.734906 7.458645 
  CA	-1.2231466 2.89066 6.571096 
  CA	-1.2481136 4.041316 7.0177264 
  CA	-1.9832866 0.36163658 5.9988985 
  CA	-3.0771236 0.49399686 6.611353 
  CA	-1.6988345 2.581057 5.334313 
  CA	-1.6343695 1.2299807 4.889882 
40
 generated by JK
  CA	8.364905 1.0506408 -4.2493267 
  CA	9.06677 2.2691493 -4.0410886 
  CA	8.995863 2.548621 -2.5612943 
  CA	8.74572 1.6409391 -1.7600243 
  CA	9.039014 3.8588767 -2.2015214 
  CA	8.735055 4.1952868 -0.8497331 
  CA	7.6153297 3.2950835 -0.42849275 
  CA	6.4585195 3.5833194 -0.72912973 
  CA	7.976255 2.0666263 -0.017075837 
  CA	6.9961004 1.0400271 0.061795026 
  CA	5.7039742 1.6006427 -0.38577962 
  CA	4.9123316 2.0889668 0.4322712 
  CA	5.352703 1.395843 -1.6532247 
  CA	4.0375557 1.7086759 -2.1114542 
  CA	3.101361 1.2585571 -1.0624667 
  CA	3.42239 1.2322872 0.11997683 
  CA	1.8997058 0.8176395 -1.4723711 
  CA	0.95536315 0.29357094 -0.53628004 
  CA	1.2026945 1.0193422 0.745144 
  CA	1.3249243 2.2467985 0.7826474 
  CA	1.3962243 0.2419008 1.8418046 
  CA	1.7801943 0.8539623 3.08209 
  CA	0.80010533 1.9714556 3.3178596 
  CA	-0.33412248 1.7514726 3.7566679 
  CA	1.3278955 3.2236552 3.293133 
  CA	0.58001554 4.2979317 3.815897 
  CA	0.08867152 3.8905787 5.1541834 
  CA	-0.2974562 2.7505338 5.3437862 
  CA	0.31883335 4.718455 6.163561 
  CA	0.13062052 4.296589 7.531416 
  CA	1.0427649 3.1083443 7.7047963 
  CA	2.2268994 3.2845266 8.013107 
  CA	0.42434204 1.9367023 7.942728 
  CA	-0.91469735 1.7343886 7.4587965 
  CA	-1.2230393 2.8904095 6.571295 
  CA	-1.2481307 4.041226 7.0180426 
  CA	-1.9829518 0.3611535 5.9991574 
  CA	-3.0770607 0.49362594 6.611616 
  CA	-1.698545 2.5806167 5.3344803 
  CA	-1.633946 1.2294277 4.8900194 
40
 generated by JK
  CA	8.364054 1.050046 -4.2489104 
  CA	9.065827 2.2685513 -4.040806 
  CA	8.995025 2.548114 -2.5612469 
  CA	8.744911 1.6404209 -1.7599642 
  CA	9.038252 3.8582346 -2.201524 
  CA	8.734374 4.194706 -0.84971595 
  CA	7.61482 3.2945485 -0.4285851 
  CA	6.458046 3.582864 -0.72931784 
  CA	7.975717 2.066099 -0.017204136 
  CA	6.995756 1.0395359 0.061899215 
  CA	5.703516 1.60025 -0.38551778 
  CA	4.9119177 2.0886471 0.43235928 
  CA	5.3520603 1.3955103 -1.6528072 
  CA	4.0370665 1.7082075 -2.1109354 
  CA	3.100911 1.258028 -1.0620451 
  CA	3.4218893 1.2316806 0.12018263 
  CA	1.8994386 0.81709695 -1.4718431 
  CA	0.95530593 0.2929799 -0.535831 
  CA	1.2024492 1.018812 0.74537176 
  CA	1.3247539 2.2462149 0.7828694 
  CA	1.3959419 0.24141577 1.8418628 
  CA	1.7798982 0.85358727 3.0819757 
  CA	0.79995435 1.9709525 3.3177028 
  CA	-0.33431166 1.7508897 3.756596 
  CA	1.3276502 3.2231317 3.2928896 
  CA	0.5799005 4.2972693 3.8155217 
  CA	0.08872715 3.8900905 5.1538224 
  CA	-0.29739645 2.7503572 5.3436317 
  CA	0.31901675 4.717802 6.163037 
  CA	0.13105221 4.296362 7.5309825 
  CA	1.0432173 3.1082866 7.7043543 
  CA	2.2272036 3.284463 8.012382 
  CA	0.42494202 1.9369712 7.942289 
  CA	-0.9141259 1.734747 7.4586105 
  CA	-1.2227534 2.8905487 6.571142 
  CA	-1.247891 4.0412335 7.017763 
  CA	-1.9827191 0.3615811 5.9992123 
  CA	-3.0767412 0.49402788 6.611629 
  CA	-1.6984094 2.580924 5.334554 
  CA	-1.6338655 1.2298129 4.890203 
40
 generated by JK
  CA	8.364902 1.0506239 -4.2493405 
  CA	9.066766 2.2691364 -4.041093 
  CA	8.995852 2.5486069 -2.5613012 
  CA	8.745709 1.6409248 -1.7600275 
  CA	9.039002 3.8588603 -2.2015262 
  CA	8.735051 4.1952734 -0.84974205 
  CA	7.6153235 3.2950723 -0.42850238 
  CA	6.458512 3.583307 -0.7291363 
  CA	7.976248 2.066617 -0.017086953 
  CA	6.996092 1.0400153 0.061789215 
  CA	5.703963 1.6006331 -0.3857835 
  CA	4.9123273 2.0889518 0.4322757 
  CA	5.3526855 1.3958364 -1.6532187 
  CA	4.037527 1.7086657 -2.1114461 
  CA	3.1013422 1.2585435 -1.0624522 
  CA	3.4223685 1.232274 0.11998348 
  CA	1.8996905 0.81762755 -1.4723576 
  CA	0.9553493 0.29355437 -0.5362656 
  CA	1.2026926 1.0193254 0.7451558 
  CA	1.324917 2.2467864 0.7826577 
  CA	1.396217 0.24188656 1.8418143 
  CA	1.7801824 0.85394704 3.0821 
  CA	0.80010104 1.9714502 3.317868 
  CA	-0.3341233 1.751462 3.7566707 
  CA	1.3278928 3.2236443 3.2931373 
  CA	0.5800099 4.297924 3.8159056 
  CA	0.08867268 3.8905747 5.1541843 
  CA	-0.29745206 2.7505338 5.3437886 
  CA	0.31883857 4.7184486 6.1635604 
  CA	0.13062589 4.2965765 7.5314145 
  CA	1.0427784 3.108338 7.704798 
  CA	2.2269032 3.284519 8.0131035 
  CA	0.4243577 1.936697 7.94273 
  CA	-0.9146928 1.7343836 7.4588003 
  CA	-1.2230353 2.8904033 6.5713024 
  CA	-1.2481235 4.041218 7.018048 
  CA	-1.9829617 0.36115447 5.9991617 
  CA	-3.0770724 0.49362665 6.6116204 
  CA	-1.6985441 2.5806146 5.3344893 
  CA	-1.6339468 1.2294278 4.890025 
