40
 generated by JK
  CA	4.6063833 3.1878517 6.729204 
  CA	4.2324457 4.1698613 6.0883374 
  CA	2.9590385 4.084933 5.838402 
  CA	2.02996 3.7086036 6.5197515 
  CA	2.9458153 4.8312593 5.0019584 
  CA	1.818845 5.193213 4.6003876 
  CA	1.1865165 4.615704 3.6785243 
  CA	1.2767683 3.4014924 3.5295877 
  CA	0.26638633 5.508763 4.024015 
  CA	-1.017737 5.1985855 4.1180277 
  CA	-1.3369833 4.60455 2.842987 
  CA	-2.3698769 4.272176 2.2888188 
  CA	-0.69523835 3.628982 2.9201424 
  CA	0.38315165 3.1991243 2.6118085 
  CA	0.27474272 1.7104013 2.7837315 
  CA	0.17677267 1.0853927 1.6546026 
  CA	0.34657905 1.3716651 4.1734715 
  CA	-0.41146398 0.20349321 4.9029393 
  CA	-0.81155217 -0.747159 3.8831153 
  CA	-1.9147758 -1.3727273 4.0308084 
  CA	0.33891115 -1.1245309 3.5054827 
  CA	0.452396 -1.2946708 2.0856872 
  CA	-0.35111204 -0.6439894 1.2015283 
  CA	-1.4420198 -1.0707741 0.95290065 
  CA	0.19327265 0.5274489 0.6365919 
  CA	-0.48729637 1.4378093 -0.32156432 
  CA	-1.877458 0.92863035 -0.31236076 
  CA	-2.1203012 0.026217371 -1.1351931 
  CA	-2.4920273 1.2388294 0.8278059 
  CA	-3.6403103 0.759233 1.201396 
  CA	-3.8975856 -0.68857276 1.1956012 
  CA	-3.9005969 -1.4681329 0.15578592 
  CA	-4.21399 -1.0481148 2.5594528 
  CA	-4.2372093 -2.3291676 3.2219257 
  CA	-4.4001293 -3.2935126 2.3135276 
  CA	-5.555479 -3.5010653 2.1167517 
  CA	-5.1956925 -2.7780254 -0.1525433 
  CA	-5.8366413 -2.7361546 -1.1858151 
  CA	-3.5169206 -3.3084025 1.3264662 
  CA	-3.9339824 -3.2063868 0.08201212 
40
 generated by JK
  CA	4.6067195 3.9465847 7.275638 
  CA	4.1022625 5.019927 6.597955 
  CA	2.743688 4.85648 6.358486 
  CA	1.8416469 4.41566 7.134457 
  CA	2.5359597 5.5873713 5.391447 
  CA	1.2791071 5.849625 5.0034575 
  CA	0.7583549 5.2307277 3.9275854 
  CA	1.0183892 4.0184655 3.8184705 
  CA	-0.31648654 5.9584956 4.0404553 
  CA	-1.5976348 5.419408 4.171525 
  CA	-1.8773844 4.9156275 2.8407538 
  CA	-2.9692914 4.65628 2.3972268 
  CA	-1.2345533 3.8832693 2.719972 
  CA	0.0021292567 3.5070894 2.28643 
  CA	-0.04098116 1.9603372 2.4664986 
  CA	-0.0657666 1.3019761 1.3641043 
  CA	-0.004101634 1.5369259 3.9075665 
  CA	-0.74328506 0.37863085 4.731971 
  CA	-1.222168 -0.70164347 3.8074791 
  CA	-2.3181298 -1.3364125 4.1372023 
  CA	-0.022867374 -1.2051096 3.3853965 
  CA	0.09624562 -1.5442193 1.9409273 
  CA	-0.80584204 -0.89706206 1.0411538 
  CA	-1.9592667 -1.3325436 0.8704917 
  CA	-0.22301945 0.24517542 0.36010015 
  CA	-0.90193605 1.123271 -0.65657747 
  CA	-2.3170705 0.6092644 -0.75482064 
  CA	-2.5511456 -0.37277567 -1.5627323 
  CA	-3.0851688 0.94629073 0.31613967 
  CA	-4.3260827 0.3913719 0.6492938 
  CA	-4.4420476 -1.1405346 0.78936994 
  CA	-4.318639 -1.9293133 -0.19176304 
  CA	-4.814024 -1.4686499 2.145729 
  CA	-4.784952 -2.7873323 2.8888614 
  CA	-5.008661 -3.8624146 2.011864 
  CA	-6.2337008 -4.057282 1.8980039 
  CA	-5.9587693 -3.3329692 -0.65842974 
  CA	-6.6018515 -3.2217875 -1.7344537 
  CA	-4.1393003 -3.912325 0.9154223 
  CA	-4.596712 -3.8052726 -0.41841424 
40
 generated by JK
  CA	4.4712577 4.774482 7.7478848 
  CA	3.8028553 5.8572206 7.0868196 
  CA	2.3959186 5.610386 6.8554177 
  CA	1.6078289 5.137284 7.721098 
  CA	1.9916689 6.263633 5.7889457 
  CA	0.6294465 6.3659625 5.425017 
  CA	0.33851427 5.7638216 4.227225 
  CA	0.80366135 4.635414 4.109393 
  CA	-0.8662501 6.2026577 4.116105 
  CA	-2.0645618 5.4527617 4.2961826 
  CA	-2.3181233 5.118778 2.9357107 
  CA	-3.4533012 5.0234933 2.590316 
  CA	-1.7159826 4.080241 2.5890124 
  CA	-0.43442234 3.7501209 2.0010319 
  CA	-0.41623157 2.2059383 2.1163578 
  CA	-0.28156748 1.5761032 1.0539223 
  CA	-0.5145787 1.6637689 3.4768314 
  CA	-1.1136942 0.47884497 4.2894793 
  CA	-1.6720066 -0.63611084 3.5248468 
  CA	-2.664611 -1.2578796 4.048587 
  CA	-0.50630575 -1.2135713 3.0375762 
  CA	-0.37646648 -1.7496035 1.688913 
  CA	-1.3717843 -1.1461505 0.79122245 
  CA	-2.5470705 -1.5583853 0.76600075 
  CA	-0.8336166 -0.08173056 0.020460293 
  CA	-1.5331581 0.7419509 -0.9927805 
  CA	-2.925783 0.21946752 -1.1931093 
  CA	-3.031083 -0.7590332 -1.9758117 
  CA	-3.8709974 0.5979047 -0.2878735 
  CA	-5.155611 0.010131121 -0.048808336 
  CA	-5.15035 -1.5369005 0.1968534 
  CA	-4.8393106 -2.321711 -0.68704903 
  CA	-5.6219325 -1.8752961 1.4621633 
  CA	-5.553191 -3.1878185 2.193978 
  CA	-5.8058615 -4.331458 1.4068382 
  CA	-7.0302825 -4.5344243 1.4135625 
  CA	-6.884286 -3.7786396 -1.3961368 
  CA	-7.4179144 -3.5874472 -2.5269928 
  CA	-5.0044055 -4.4637475 0.25473884 
  CA	-5.493542 -4.378181 -1.1467592 
40
 generated by JK
  CA	4.0998535 5.6385517 8.245861 
  CA	3.2868183 6.6467586 7.6648884 
  CA	1.891167 6.288647 7.4700828 
  CA	1.2304388 5.780204 8.396719 
  CA	1.328569 6.8614507 6.3598943 
  CA	-0.048226506 6.751483 6.0199285 
  CA	-0.054410398 6.1829104 4.737514 
  CA	0.63173145 5.2027216 4.6113596 
  CA	-1.3275352 6.313842 4.4731135 
  CA	-2.343018 5.3775434 4.6380157 
  CA	-2.5918808 5.2658854 3.2572272 
  CA	-3.7376046 5.374497 2.9689388 
  CA	-1.9982862 4.3092656 2.674217 
  CA	-0.8662727 4.009818 1.9073874 
  CA	-0.76006025 2.486227 1.9094476 
  CA	-0.43501997 1.9496727 0.8640522 
  CA	-1.0637577 1.785889 3.0306587 
  CA	-1.414988 0.520135 3.630259 
  CA	-2.1124737 -0.57053936 3.080063 
  CA	-2.923958 -1.2115548 3.7682624 
  CA	-1.1056263 -1.0756496 2.427857 
  CA	-0.9907634 -1.802261 1.2367753 
  CA	-2.079519 -1.2961583 0.38281676 
  CA	-3.2578788 -1.6791945 0.54232544 
  CA	-1.660454 -0.30973867 -0.4423227 
  CA	-2.4374208 0.4919778 -1.3841475 
  CA	-3.690495 -0.09653899 -1.7095194 
  CA	-3.5421805 -1.0360208 -2.4470541 
  CA	-4.818521 0.33932278 -1.1087058 
  CA	-6.086184 -0.25992572 -1.0110015 
  CA	-6.052737 -1.7992849 -0.74230224 
  CA	-5.5196466 -2.583083 -1.5059582 
  CA	-6.7212596 -2.2304702 0.32270896 
  CA	-6.6305933 -3.5446043 0.918009 
  CA	-6.889393 -4.7273664 0.26950002 
  CA	-8.034817 -5.018724 0.46928006 
  CA	-7.9788866 -4.1679006 -2.5884967 
  CA	-8.291143 -3.9134293 -3.7407632 
  CA	-6.1637597 -4.9741926 -0.8850882 
  CA	-6.696547 -4.9385557 -2.270667 
40
 generated by JK
  CA	3.537946 6.373224 8.873951 
  CA	2.6297212 7.292963 8.396308 
  CA	1.3009199 6.813745 8.2792225 
  CA	0.7453021 6.2133045 9.251725 
  CA	0.63014066 7.312354 7.18387 
  CA	-0.6727519 6.9768186 6.857447 
  CA	-0.42021605 6.4496026 5.529085 
  CA	0.50793624 5.6298623 5.430929 
  CA	-1.6985829 6.3143287 5.1753516 
  CA	-2.4756868 5.2128935 5.220257 
  CA	-2.7069635 5.37189 3.824807 
  CA	-3.7936244 5.7078958 3.5536594 
  CA	-2.1010501 4.590401 3.001465 
  CA	-1.2733014 4.340914 2.0362196 
  CA	-1.0362947 2.8400545 1.9066794 
  CA	-0.5170315 2.490732 0.8819405 
  CA	-1.5571465 1.9750837 2.640542 
  CA	-1.6179929 0.60166216 2.8937097 
  CA	-2.5156987 -0.47610617 2.5631099 
  CA	-3.1506202 -1.1834947 3.3706071 
  CA	-1.8013971 -0.80113244 1.6580127 
  CA	-1.764005 -1.6883063 0.6281508 
  CA	-2.943658 -1.301615 -0.12893447 
  CA	-4.0848064 -1.6517088 0.23659056 
  CA	-2.6939049 -0.33038563 -1.0031464 
  CA	-3.5935352 0.44792932 -1.8665779 
  CA	-4.5356965 -0.25755593 -2.4008162 
  CA	-4.0783644 -1.1567441 -3.0579271 
  CA	-5.776666 0.26085573 -2.2495668 
  CA	-7.0362496 -0.30725348 -2.2979853 
  CA	-7.0956426 -1.875428 -2.0911686 
  CA	-6.3428907 -2.624292 -2.7070875 
  CA	-8.045302 -2.4286456 -1.3264105 
  CA	-7.9561615 -3.7855225 -0.9816862 
  CA	-8.227857 -4.9970627 -1.447521 
  CA	-9.204057 -5.406195 -1.0035894 
  CA	-9.19171 -4.462121 -4.3355823 
  CA	-9.232899 -4.137521 -5.475955 
  CA	-7.5961304 -5.3593035 -2.5777054 
  CA	-8.161174 -5.3627114 -3.8701015 
40
 generated by JK
  CA	2.857003 6.9887204 9.534831 
  CA	1.88639 7.823584 9.146596 
  CA	0.64903474 7.196241 9.128943 
  CA	0.18908665 6.4813137 10.120309 
  CA	-0.08909577 7.627747 8.108952 
  CA	-1.2819177 7.074946 7.766882 
  CA	-0.7929523 6.579569 6.4395943 
  CA	0.3326825 5.903254 6.367533 
  CA	-2.0434053 6.236285 6.0373216 
  CA	-2.5537364 5.009263 5.8680906 
  CA	-2.732059 5.4298587 4.453026 
  CA	-3.74302 5.996811 4.1659985 
  CA	-2.1093066 4.820433 3.4525068 
  CA	-1.6324028 4.6297374 2.272275 
  CA	-1.2964519 3.1871207 1.9693719 
  CA	-0.6191812 3.0710373 0.995175 
  CA	-1.9948027 2.1864586 2.2608485 
  CA	-1.8293313 0.7249445 2.166254 
  CA	-2.8928971 -0.3006013 1.9853976 
  CA	-3.4130855 -1.1156533 2.854873 
  CA	-2.5372317 -0.41749316 0.85137933 
  CA	-2.587718 -1.4147459 -0.03131205 
  CA	-3.8737955 -1.1713705 -0.6535615 
  CA	-4.919745 -1.516326 -0.08567251 
  CA	-3.8336048 -0.18489976 -1.6264898 
  CA	-4.893197 0.4822325 -2.4206781 
  CA	-5.4240417 -0.3530409 -3.2072027 
  CA	-4.659575 -1.2071967 -3.7553756 
  CA	-6.637353 0.23943368 -3.5672588 
  CA	-7.947914 -0.24128944 -3.761052 
  CA	-8.147044 -1.861803 -3.7063086 
  CA	-7.203866 -2.563212 -4.155716 
  CA	-9.391929 -2.4738364 -3.23453 
  CA	-9.317603 -3.8958836 -3.207815 
  CA	-9.639706 -5.104864 -3.4798746 
  CA	-10.39445 -5.6404376 -2.7933226 
  CA	-10.407364 -4.6421285 -6.3621655 
  CA	-10.182671 -4.280893 -7.4935837 
  CA	-9.125178 -5.5761175 -4.5507507 
  CA	-9.694434 -5.6104083 -5.754071 
40
 generated by JK
  CA	2.377836 7.309187 10.233854 
  CA	1.3601265 8.076689 9.885719 
  CA	0.1826051 7.3323045 9.877698 
  CA	-0.16708928 6.552004 10.7996855 
  CA	-0.61934906 7.7219543 8.934141 
  CA	-1.7118413 7.011802 8.539822 
  CA	-1.0745167 6.5280776 7.2372537 
  CA	0.11422324 6.0433216 7.1081877 
  CA	-2.2394223 6.007172 6.853685 
  CA	-2.4736066 4.786931 6.4134426 
  CA	-2.7050722 5.3251066 4.9954076 
  CA	-3.6463454 6.126313 4.71263 
  CA	-2.1427271 4.732147 3.9338856 
  CA	-2.0539582 4.6550517 2.6045842 
  CA	-1.6526121 3.4072025 1.9979309 
  CA	-0.92044234 3.5810993 1.0448241 
  CA	-2.386861 2.318565 1.9359223 
  CA	-2.119717 0.91909903 1.4822991 
  CA	-3.2002187 -0.03842868 1.3161366 
  CA	-3.5928223 -0.913215 2.152868 
  CA	-3.164257 -0.02848363 0.08981079 
  CA	-3.2639387 -1.0874553 -0.7058078 
  CA	-4.677506 -0.9779006 -1.1464019 
  CA	-5.6172833 -1.3608716 -0.4120937 
  CA	-4.8635993 -0.032670245 -2.23715 
  CA	-6.0995936 0.4486491 -2.942727 
  CA	-6.324565 -0.41858324 -3.918855 
  CA	-5.346652 -1.1604726 -4.3612013 
  CA	-7.4184194 0.18899381 -4.645539 
  CA	-8.794606 -0.14080435 -4.977894 
  CA	-9.119227 -1.6983767 -5.0929213 
  CA	-8.073259 -2.3670905 -5.4279733 
  CA	-10.513957 -2.2621174 -4.876725 
  CA	-10.484129 -3.6815205 -5.186097 
  CA	-10.95983 -4.868473 -5.340597 
  CA	-11.554945 -5.491533 -4.510914 
  CA	-11.582114 -4.407236 -8.291175 
  CA	-11.176995 -4.0108533 -9.385603 
  CA	-10.50439 -5.4481473 -6.383359 
  CA	-11.044057 -5.472238 -7.5937176 
40
 generated by JK
  CA	2.1158848 7.462039 10.889838 
  CA	1.0600395 8.199923 10.593385 
  CA	-0.07890268 7.3473177 10.5056925 
  CA	-0.30869558 6.4906697 11.32063 
  CA	-0.9496362 7.7167764 9.628817 
  CA	-1.9568338 6.887584 9.181951 
  CA	-1.260579 6.3818326 7.9083767 
  CA	-0.087049514 6.0646214 7.699882 
  CA	-2.3188543 5.7276335 7.51413 
  CA	-2.325491 4.5898647 6.8184423 
  CA	-2.6280951 5.151302 5.3983083 
  CA	-3.4775822 6.0941634 5.1541305 
  CA	-2.1784022 4.520268 4.3491583 
  CA	-2.4219193 4.5915256 2.9487474 
  CA	-1.9833775 3.5398347 2.0280495 
  CA	-1.2675741 3.9402716 1.1177092 
  CA	-2.6879916 2.4332485 1.7249941 
  CA	-2.4120932 1.186115 0.95872927 
  CA	-3.4331336 0.2646197 0.7254251 
  CA	-3.7066872 -0.6838497 1.4914571 
  CA	-3.6298165 0.3958914 -0.5165 
  CA	-3.8042517 -0.7104236 -1.3064024 
  CA	-5.298506 -0.727751 -1.5729465 
  CA	-6.1365476 -1.1912857 -0.70400983 
  CA	-5.69903 0.1195191 -2.7061353 
  CA	-7.0461597 0.39227656 -3.3480434 
  CA	-7.1002536 -0.45240018 -4.4561014 
  CA	-6.0241084 -1.0868869 -4.807045 
  CA	-8.089686 0.1605357 -5.379517 
  CA	-9.493138 -0.051046133 -5.8233986 
  CA	-9.9146805 -1.502408 -6.128225 
  CA	-8.868474 -2.2059667 -6.3859982 
  CA	-11.329398 -1.9583027 -6.128259 
  CA	-11.384294 -3.3137374 -6.6881766 
  CA	-12.0503435 -4.5004134 -6.7903676 
  CA	-12.546172 -5.187989 -5.907271 
  CA	-12.605046 -4.028611 -9.862562 
  CA	-12.079691 -3.6528196 -10.916569 
  CA	-11.645047 -5.159547 -7.8657656 
  CA	-12.156457 -5.150451 -9.112521 
40
 generated by JK
  CA	2.0912695 7.4551096 11.3276615 
  CA	0.9971228 8.177108 11.068809 
  CA	-0.14705549 7.2744665 10.889003 
  CA	-0.3001025 6.3430066 11.612496 
  CA	-1.0674603 7.640157 10.030458 
  CA	-2.0233817 6.7423553 9.542421 
  CA	-1.364241 6.209944 8.277109 
  CA	-0.20129725 5.99044 8.006407 
  CA	-2.3652372 5.4784856 7.8826756 
  CA	-2.2576406 4.4434147 7.042923 
  CA	-2.6073356 5.0072823 5.6150985 
  CA	-3.378188 6.0092983 5.399099 
  CA	-2.2500865 4.344552 4.563285 
  CA	-2.6369867 4.5271287 3.1605353 
  CA	-2.2033992 3.612426 2.0421135 
  CA	-1.5204297 4.136787 1.1607066 
  CA	-2.871948 2.521183 1.6494796 
  CA	-2.598505 1.4159667 0.70507306 
  CA	-3.5738072 0.46925724 0.41579738 
  CA	-3.7835274 -0.5021672 1.1191936 
  CA	-3.8925123 0.64508796 -0.8109971 
  CA	-4.1383142 -0.45945638 -1.612944 
  CA	-5.664469 -0.5466079 -1.7953323 
  CA	-6.4394608 -1.054119 -0.8780122 
  CA	-6.1848693 0.1965443 -2.9111357 
  CA	-7.5477667 0.34738356 -3.53878 
  CA	-7.5347695 -0.43241146 -4.7399206 
  CA	-6.4423466 -1.0069878 -5.073163 
  CA	-8.47061 0.18073976 -5.709882 
  CA	-9.87987 0.058565736 -6.2020674 
  CA	-10.345376 -1.3067424 -6.6416945 
  CA	-9.345101 -2.0357413 -6.8711014 
  CA	-11.731687 -1.6885228 -6.779112 
  CA	-11.852607 -2.9726148 -7.454027 
  CA	-12.651431 -4.175895 -7.555817 
  CA	-13.100277 -4.880149 -6.6763487 
  CA	-13.202753 -3.703037 -10.760314 
  CA	-12.64421 -3.3413606 -11.7997055 
  CA	-12.279305 -4.863168 -8.669894 
  CA	-12.797526 -4.8277884 -9.942671 
40
 generated by JK
  CA	2.0949101 7.434492 11.754579 
  CA	0.9525171 8.136278 11.528766 
  CA	-0.20228441 7.186891 11.251571 
  CA	-0.2915199 6.158977 11.865734 
  CA	-1.1826795 7.5533156 10.413515 
  CA	-2.096948 6.5851293 9.882414 
  CA	-1.4939904 6.0123463 8.606153 
  CA	-0.33346495 5.8759813 8.284383 
  CA	-2.4575753 5.2030377 8.198869 
  CA	-2.2475288 4.280388 7.2294197 
  CA	-2.6250503 4.847773 5.7878184 
  CA	-3.3146565 5.878725 5.60465 
  CA	-2.3555825 4.1633835 4.7074165 
  CA	-2.8389993 4.4491487 3.332487 
  CA	-2.4279437 3.6696823 2.031476 
  CA	-1.7825342 4.2904353 1.1867881 
  CA	-3.0528684 2.6194808 1.5839385 
  CA	-2.787408 1.6802304 0.48726347 
  CA	-3.7231307 0.68242574 0.13740115 
  CA	-3.8725255 -0.31507152 0.7784411 
  CA	-4.166877 0.9037678 -1.0615214 
  CA	-4.507213 -0.17635114 -1.8855699 
  CA	-6.041389 -0.35123798 -2.0078564 
  CA	-6.7480025 -0.9085337 -1.0754865 
  CA	-6.665396 0.26325345 -3.07661 
  CA	-8.007995 0.2872011 -3.7212253 
  CA	-7.9298816 -0.4172068 -5.0005574 
  CA	-6.8302593 -0.937837 -5.3260813 
  CA	-8.808195 0.20148748 -5.9918227 
  CA	-10.2021 0.18200314 -6.525855 
  CA	-10.702374 -1.0976484 -7.1084843 
  CA	-9.762041 -1.8652054 -7.33024 
  CA	-12.051792 -1.3956466 -7.3817425 
  CA	-12.23844 -2.6016517 -8.137333 
  CA	-13.153579 -3.8351333 -8.248009 
  CA	-13.560093 -4.562654 -7.3933687 
  CA	-13.741097 -3.3751824 -11.588181 
  CA	-13.169 -3.04071 -12.613265 
  CA	-12.838809 -4.5257864 -9.386659 
  CA	-13.3847475 -4.4765944 -10.689779 
