40
 generated by JK
  CA	-9.528887 -8.532072 3.1694956 
  CA	-9.799991 -7.069119 3.2495465 
  CA	-9.720482 -6.56118 1.7927678 
  CA	-10.784696 -6.612412 1.0052459 
  CA	-8.591977 -5.9697065 1.4211565 
  CA	-8.16133 -5.801942 0.081710964 
  CA	-6.990318 -4.9746327 0.21865278 
  CA	-7.018308 -3.7293644 0.22837207 
  CA	-5.9617214 -5.728423 0.06063886 
  CA	-4.803279 -5.1327043 -0.361745 
  CA	-4.5019584 -6.0978956 -1.4639196 
  CA	-3.3252003 -6.6752634 -1.3110182 
  CA	-5.1855145 -5.7992945 -2.7093399 
  CA	-4.5749364 -5.930297 -4.0456424 
  CA	-3.9063897 -4.6194677 -3.912644 
  CA	-4.256301 -3.6080768 -4.5213757 
  CA	-2.5848708 -4.788198 -3.7471306 
  CA	-1.5422381 -4.1623507 -4.6094656 
  CA	-2.2509668 -3.6309536 -5.871723 
  CA	-2.6495245 -4.5348563 -6.6991596 
  CA	-3.1164436 -2.4306984 -5.86313 
  CA	-3.081874 -1.33699 -6.8519835 
  CA	-2.4861631 -0.1519236 -6.170389 
  CA	-3.1736128 0.7724373 -5.881075 
  CA	-1.1936007 -0.20767592 -5.795743 
  CA	-0.8446735 0.08865625 -4.396921 
  CA	-0.6490156 -1.2095273 -3.570397 
  CA	0.42230645 -1.8110185 -3.960113 
  CA	-1.2234733 -1.1991596 -2.2388012 
  CA	-0.32526335 -1.26078 -1.1418004 
  CA	0.3840288 0.17072684 -0.9281734 
  CA	1.2929254 0.09924078 -0.06434117 
  CA	0.31779405 1.3179483 -1.8669955 
  CA	-0.8837878 1.5155615 -2.8876026 
  CA	-0.83624405 0.59008735 -4.0203533 
  CA	-0.61017895 1.0122706 -5.133373 
  CA	0.44593546 -2.4247754 -3.0079663 
  CA	1.6333525 -2.1995103 -2.7474551 
  CA	-1.0922662 -0.7523695 -3.7277923 
  CA	-0.25839946 -1.7878175 -4.2178025 
40
 generated by JK
  CA	-10.111702 -8.529068 3.2660532 
  CA	-10.344868 -7.0662985 3.3134663 
  CA	-10.248715 -6.563732 1.8764719 
  CA	-11.305642 -6.5843754 1.0908855 
  CA	-9.100836 -6.0109334 1.5039427 
  CA	-8.635586 -5.827483 0.16641736 
  CA	-7.4288635 -5.0300484 0.2838289 
  CA	-7.4468713 -3.78309 0.33381346 
  CA	-6.368916 -5.7775846 0.054216474 
  CA	-5.1975203 -5.184977 -0.41805315 
  CA	-4.840249 -6.120324 -1.522964 
  CA	-3.6901834 -6.70588 -1.3340122 
  CA	-5.430193 -5.804242 -2.7915611 
  CA	-4.783798 -5.965396 -4.0951533 
  CA	-4.070536 -4.6835146 -4.0067577 
  CA	-4.441665 -3.669691 -4.6121593 
  CA	-2.7259207 -4.874981 -3.8628023 
  CA	-1.7092884 -4.250684 -4.7111588 
  CA	-2.3927884 -3.7434046 -5.9815817 
  CA	-2.780345 -4.634721 -6.823305 
  CA	-3.1874738 -2.5325341 -5.9729953 
  CA	-3.082788 -1.4690588 -6.972903 
  CA	-2.463317 -0.28106844 -6.3467402 
  CA	-3.148702 0.6652701 -6.04592 
  CA	-1.1551558 -0.3842634 -5.986749 
  CA	-0.7123248 -0.06391017 -4.6258235 
  CA	-0.46314296 -1.3449473 -3.813334 
  CA	0.5698488 -1.9761236 -4.233772 
  CA	-0.97445804 -1.3308426 -2.4660563 
  CA	-0.043592177 -1.4232681 -1.3773665 
  CA	0.6905945 -0.023342004 -1.124075 
  CA	1.5705 -0.10415797 -0.23484726 
  CA	0.69233084 1.1065115 -2.0644124 
  CA	-0.45083636 1.3214455 -3.1457806 
  CA	-0.34990865 0.39120865 -4.291919 
  CA	-0.14787385 0.8346926 -5.4174104 
  CA	1.0391066 -2.641161 -3.3684573 
  CA	2.2492075 -2.4699283 -3.1635723 
  CA	-0.5047032 -0.9517077 -3.9936428 
  CA	0.33168903 -1.9591947 -4.5565553 
40
 generated by JK
  CA	-11.391776 -8.322128 3.451346 
  CA	-11.493612 -6.8889065 3.467704 
  CA	-11.341252 -6.400889 2.0667684 
  CA	-12.37175 -6.3332577 1.2797197 
  CA	-10.154033 -5.960634 1.7007309 
  CA	-9.661022 -5.766265 0.36694896 
  CA	-8.383721 -5.052553 0.44874117 
  CA	-8.379994 -3.8207664 0.5634437 
  CA	-7.310159 -5.7852173 0.08724643 
  CA	-6.1171813 -5.1982403 -0.4528011 
  CA	-5.6050034 -6.088313 -1.5500879 
  CA	-4.5246296 -6.7174025 -1.3101041 
  CA	-5.9755406 -5.739443 -2.8107936 
  CA	-5.215052 -5.9527164 -4.0373106 
  CA	-4.4320693 -4.7275624 -4.075903 
  CA	-4.8545394 -3.7086275 -4.633455 
  CA	-3.0828316 -4.9561405 -4.0325775 
  CA	-2.0831654 -4.328891 -4.844398 
  CA	-2.6581266 -3.8995216 -6.1345744 
  CA	-2.9934726 -4.7737265 -6.995817 
  CA	-3.2402945 -2.675035 -6.1799946 
  CA	-2.991955 -1.7331251 -7.1964145 
  CA	-2.339224 -0.5620675 -6.659481 
  CA	-2.9959786 0.4154666 -6.3266735 
  CA	-1.02525 -0.73900783 -6.3590775 
  CA	-0.4170423 -0.3676912 -5.106748 
  CA	-0.0036022589 -1.5950823 -4.34284 
  CA	0.91516227 -2.3109028 -4.8098216 
  CA	-0.30638623 -1.5288973 -3.0072584 
  CA	0.66924816 -1.7050345 -1.9706922 
  CA	1.4273462 -0.4187648 -1.6166053 
  CA	2.1837568 -0.52976936 -0.65705156 
  CA	1.6148828 0.6188802 -2.5259998 
  CA	0.6744634 0.88441896 -3.6892803 
  CA	0.87900585 -0.049598828 -4.8734803 
  CA	1.0307505 0.42960966 -6.012302 
  CA	2.4516895 -3.121191 -4.216153 
  CA	3.6756573 -3.0601282 -4.1151977 
  CA	0.89636767 -1.3941962 -4.6206503 
  CA	1.7345976 -2.3390303 -5.311288 
40
 generated by JK
  CA	-12.512422 -8.644335 3.4433405 
  CA	-12.486617 -7.208051 3.4492445 
  CA	-12.280336 -6.6998754 2.0711088 
  CA	-13.296917 -6.5623913 1.3025813 
  CA	-11.0498085 -6.3372617 1.7174078 
  CA	-10.495771 -6.1135187 0.37490037 
  CA	-9.164646 -5.402807 0.43932596 
  CA	-9.134541 -4.1800184 0.6162501 
  CA	-8.074399 -6.088979 -0.012440205 
  CA	-6.888845 -5.484706 -0.55545276 
  CA	-6.2637863 -6.324303 -1.5977302 
  CA	-5.259876 -7.0210795 -1.2923315 
  CA	-6.473583 -5.892706 -2.8470728 
  CA	-5.6155634 -6.1015134 -3.9689238 
  CA	-4.8267374 -4.8811364 -4.1460853 
  CA	-5.287986 -3.870456 -4.6781607 
  CA	-3.4606237 -5.1006484 -4.1764107 
  CA	-2.450026 -4.3992124 -4.969528 
  CA	-2.9361792 -4.011107 -6.3087544 
  CA	-3.2445343 -4.901455 -7.163954 
  CA	-3.3437953 -2.7554183 -6.4227858 
  CA	-2.9640417 -1.8997097 -7.4903955 
  CA	-2.2703166 -0.71223336 -7.0122237 
  CA	-2.8964367 0.29297516 -6.6568327 
  CA	-0.94954675 -0.9217981 -6.7125573 
  CA	-0.23705305 -0.4712426 -5.516976 
  CA	0.2839068 -1.6357476 -4.7453218 
  CA	1.1413724 -2.4175866 -5.230965 
  CA	0.1347873 -1.4846354 -3.416259 
  CA	1.1401457 -1.7204444 -2.4347732 
  CA	1.9286433 -0.4944601 -1.9775403 
  CA	2.578357 -0.61159426 -0.9452902 
  CA	2.2838812 0.48278937 -2.8359115 
  CA	1.5084462 0.8406116 -4.0416265 
  CA	1.7677445 -0.045100152 -5.250791 
  CA	1.8619103 0.49793315 -6.3698883 
  CA	3.4791527 -3.0986943 -4.8631244 
  CA	4.718863 -3.1108115 -4.858043 
  CA	1.9240713 -1.3702348 -5.0540504 
  CA	2.7706878 -2.2227077 -5.853017 
40
 generated by JK
  CA	-13.794981 -8.566483 3.522597 
  CA	-13.597271 -7.1777706 3.5347393 
  CA	-13.322617 -6.674766 2.172369 
  CA	-14.303677 -6.4511304 1.396956 
  CA	-12.054897 -6.430407 1.8257475 
  CA	-11.464696 -6.221759 0.50150853 
  CA	-10.100632 -5.5582542 0.53867084 
  CA	-10.042707 -4.362885 0.78926235 
  CA	-9.0490885 -6.2209096 -0.030450732 
  CA	-7.862423 -5.612222 -0.60563225 
  CA	-7.068097 -6.4067183 -1.593741 
  CA	-6.161444 -7.173449 -1.2402716 
  CA	-7.02324 -5.9064875 -2.7865717 
  CA	-6.0271254 -6.1198235 -3.8093672 
  CA	-5.2460685 -4.938817 -4.147288 
  CA	-5.760558 -3.9275565 -4.622158 
  CA	-3.8993685 -5.159455 -4.312789 
  CA	-2.8823447 -4.423463 -5.054434 
  CA	-3.208416 -4.0915594 -6.4441266 
  CA	-3.4480321 -4.9901943 -7.2936697 
  CA	-3.3691201 -2.8386657 -6.645023 
  CA	-2.848857 -2.1217198 -7.729386 
  CA	-2.0987468 -0.9569328 -7.319245 
  CA	-2.6840029 0.056748886 -6.937125 
  CA	-0.7770618 -1.2019824 -7.065072 
  CA	0.036519885 -0.6698637 -5.9978843 
  CA	0.7415337 -1.7343841 -5.2616787 
  CA	1.4764761 -2.5860913 -5.7823863 
  CA	0.8250111 -1.4819971 -3.9873476 
  CA	1.8605493 -1.8099014 -3.0624828 
  CA	2.6848588 -0.7001415 -2.4943888 
  CA	3.169198 -0.8460789 -1.4083022 
  CA	3.2503178 0.1430536 -3.2907896 
  CA	2.71507 0.5815876 -4.5276012 
  CA	3.0360096 -0.27451167 -5.766689 
  CA	3.0514753 0.30430353 -6.86056 
  CA	4.856077 -3.3220472 -5.679007 
  CA	6.080062 -3.4406157 -5.765693 
  CA	3.3357441 -1.5712917 -5.6450295 
  CA	4.1664987 -2.3324785 -6.547988 
40
 generated by JK
  CA	-14.50998 -8.866403 3.5278907 
  CA	-14.2153225 -7.4752927 3.5347703 
  CA	-13.896888 -6.959238 2.1763766 
  CA	-14.863921 -6.6915646 1.4051675 
  CA	-12.606355 -6.7689276 1.8325905 
  CA	-11.976773 -6.552397 0.5092858 
  CA	-10.59616 -5.881035 0.5295768 
  CA	-10.519887 -4.687779 0.8248083 
  CA	-9.55421 -6.508791 -0.105020195 
  CA	-8.375374 -5.8726816 -0.68235487 
  CA	-7.5103097 -6.634996 -1.6204456 
  CA	-6.6733456 -7.4527917 -1.2254617 
  CA	-7.341955 -6.052518 -2.788404 
  CA	-6.2856555 -6.250314 -3.7388842 
  CA	-5.5283747 -5.0709033 -4.1829915 
  CA	-6.067592 -4.071727 -4.643267 
  CA	-4.173958 -5.270945 -4.402768 
  CA	-3.153603 -4.479585 -5.1332755 
  CA	-3.4048867 -4.155782 -6.5552273 
  CA	-3.616093 -5.065959 -7.391918 
  CA	-3.449391 -2.8938859 -6.8226285 
  CA	-2.84383 -2.2283156 -7.929828 
  CA	-2.0514631 -1.0469956 -7.5477233 
  CA	-2.6201212 -0.021450873 -7.15777 
  CA	-0.7168999 -1.2917912 -7.294628 
  CA	0.13110769 -0.6997829 -6.2738485 
  CA	0.90254766 -1.6984913 -5.5320735 
  CA	1.591334 -2.5858457 -6.0718865 
  CA	1.0890768 -1.3725761 -4.273778 
  CA	2.1458526 -1.7427844 -3.3917627 
  CA	2.9944901 -0.6620899 -2.7595344 
  CA	3.4040601 -0.8200774 -1.6303439 
  CA	3.6769836 0.12806018 -3.5260894 
  CA	3.2499626 0.6340203 -4.787702 
  CA	3.5886211 -0.16860265 -6.0350466 
  CA	3.563526 0.44395506 -7.106727 
  CA	5.472749 -3.18088 -6.1145053 
  CA	6.686727 -3.3528116 -6.259797 
  CA	3.9832895 -1.4388583 -5.9435005 
  CA	4.801774 -2.1311321 -6.903655 
40
 generated by JK
  CA	-15.9021635 -8.974991 3.5977933 
  CA	-15.405957 -7.632733 3.6186252 
  CA	-15.007408 -7.1171594 2.2559876 
  CA	-15.93599 -6.766429 1.4673095 
  CA	-13.685652 -7.05081 1.9207636 
  CA	-13.00293 -6.840805 0.6193446 
  CA	-11.603296 -6.1986 0.60453516 
  CA	-11.4906025 -5.0271106 0.9835267 
  CA	-10.619719 -6.8057194 -0.15981919 
  CA	-9.442587 -6.148771 -0.7747361 
  CA	-8.399393 -6.855928 -1.6278843 
  CA	-7.6911755 -7.756259 -1.165861 
  CA	-7.9409976 -6.167001 -2.719916 
  CA	-6.735601 -6.3539166 -3.5496967 
  CA	-6.0253444 -5.2015576 -4.1983047 
  CA	-6.6215477 -4.1998672 -4.6046066 
  CA	-4.687786 -5.3848915 -4.5732236 
  CA	-3.672567 -4.5337234 -5.2458963 
  CA	-3.7284276 -4.245794 -6.720633 
  CA	-3.8649266 -5.174773 -7.545885 
  CA	-3.5048418 -2.990942 -7.0968513 
  CA	-2.7557611 -2.4661586 -8.218104 
  CA	-1.8854442 -1.2908791 -7.898593 
  CA	-2.4176953 -0.2570264 -7.4867473 
  CA	-0.542549 -1.5594035 -7.6893864 
  CA	0.38202825 -0.85512733 -6.801291 
  CA	1.3487669 -1.7285029 -6.091897 
  CA	1.9128057 -2.6722255 -6.6737447 
  CA	1.7778238 -1.269277 -4.8940988 
  CA	2.8656967 -1.7505971 -4.0707855 
  CA	3.7659442 -0.7665789 -3.322472 
  CA	3.998897 -0.94660014 -2.141821 
  CA	4.687745 -0.11706245 -4.024913 
  CA	4.5139017 0.4872747 -5.3204103 
  CA	4.887445 -0.25837392 -6.5933084 
  CA	4.767383 0.392932 -7.635788 
  CA	6.8694425 -3.243601 -6.9904356 
  CA	8.046298 -3.5205715 -7.234969 
  CA	5.4466777 -1.4800385 -6.578575 
  CA	6.2396584 -2.0656068 -7.638437 
40
 generated by JK
  CA	-16.506712 -8.746071 3.6794407 
  CA	-15.929348 -7.4487424 3.715432 
  CA	-15.495612 -6.948294 2.3500164 
  CA	-16.401361 -6.560833 1.5407284 
  CA	-14.167942 -6.9498363 2.0173066 
  CA	-13.482082 -6.75351 0.7227539 
  CA	-12.071238 -6.1519237 0.7024297 
  CA	-11.944782 -5.002881 1.1049048 
  CA	-11.126711 -6.767694 -0.12171531 
  CA	-9.944208 -6.1208034 -0.7672621 
  CA	-8.800699 -6.8187704 -1.6057106 
  CA	-8.135723 -7.7447953 -1.1298686 
  CA	-8.197834 -6.113082 -2.6511474 
  CA	-6.9086914 -6.306902 -3.45147 
  CA	-6.2081847 -5.1795373 -4.1751723 
  CA	-6.833065 -4.170307 -4.542012 
  CA	-4.895747 -5.378761 -4.6411686 
  CA	-3.8735127 -4.5324163 -5.271978 
  CA	-3.8313675 -4.27504 -6.765707 
  CA	-3.924302 -5.2111106 -7.5959644 
  CA	-3.4719696 -3.0287282 -7.182495 
  CA	-2.6714425 -2.5865629 -8.298109 
  CA	-1.7801702 -1.437077 -8.00729 
  CA	-2.2912855 -0.40322122 -7.5772777 
  CA	-0.44185647 -1.7300564 -7.8424077 
  CA	0.5269219 -0.9841359 -7.032174 
  CA	1.6128775 -1.8090872 -6.362506 
  CA	2.1032183 -2.7837439 -6.9662986 
  CA	2.1670568 -1.3042483 -5.2022533 
  CA	3.2693758 -1.836194 -4.387309 
  CA	4.1860347 -0.9247232 -3.5937068 
  CA	4.330785 -1.1202334 -2.4028363 
  CA	5.223121 -0.3536907 -4.2695613 
  CA	5.1711726 0.27558088 -5.5828366 
  CA	5.5679035 -0.47760385 -6.876304 
  CA	5.410389 0.17825364 -7.915117 
  CA	7.5832644 -3.482278 -7.406022 
  CA	8.737717 -3.810142 -7.6823335 
  CA	6.1862073 -1.6992284 -6.897219 
  CA	6.9678335 -2.2530575 -7.998298 
40
 generated by JK
  CA	-16.751768 -9.021935 3.6355174 
  CA	-16.137249 -7.715735 3.6695511 
  CA	-15.690102 -7.202001 2.301875 
  CA	-16.592978 -6.7994514 1.5009713 
  CA	-14.352836 -7.2117963 1.9723057 
  CA	-13.63572 -6.9997263 0.67825514 
  CA	-12.226324 -6.3774934 0.6509363 
  CA	-12.09476 -5.2229733 1.0789481 
  CA	-11.276315 -6.971549 -0.1975109 
  CA	-10.104841 -6.307331 -0.82770973 
  CA	-8.946703 -6.9850993 -1.6364484 
  CA	-8.314922 -7.9348407 -1.1319128 
  CA	-8.309085 -6.2341146 -2.6785064 
  CA	-7.0074077 -6.408037 -3.4374108 
  CA	-6.326287 -5.2713113 -4.207148 
  CA	-6.95675 -4.266042 -4.5748477 
  CA	-5.001003 -5.448205 -4.680027 
  CA	-3.9802194 -4.564763 -5.312469 
  CA	-3.920054 -4.294087 -6.8251853 
  CA	-4.0134153 -5.241776 -7.641843 
  CA	-3.526083 -3.0438533 -7.2583885 
  CA	-2.698457 -2.6066747 -8.391766 
  CA	-1.7878617 -1.4349605 -8.105831 
  CA	-2.292895 -0.39348215 -7.6791334 
  CA	-0.44172147 -1.7220633 -7.93016 
  CA	0.52843493 -0.94503605 -7.1230483 
  CA	1.6217705 -1.7420886 -6.4351516 
  CA	2.1091983 -2.7250617 -7.041248 
  CA	2.1951628 -1.2037673 -5.2712746 
  CA	3.3069382 -1.7498919 -4.4797506 
  CA	4.2413583 -0.8270825 -3.658512 
  CA	4.360144 -1.021014 -2.4459383 
  CA	5.3123584 -0.26294202 -4.32023 
  CA	5.2883873 0.40385485 -5.6339355 
  CA	5.680534 -0.3136825 -6.92915 
  CA	5.505917 0.36284345 -7.954119 
  CA	7.7147245 -3.2925103 -7.5157433 
  CA	8.866736 -3.632344 -7.8201404 
  CA	6.331095 -1.5152097 -6.958286 
  CA	7.1122894 -2.0392146 -8.079462 
40
 generated by JK
  CA	-17.323072 -9.097207 3.6525557 
  CA	-16.62965 -7.816229 3.692401 
  CA	-16.150158 -7.296545 2.3252237 
  CA	-17.040092 -6.8568225 1.5246838 
  CA	-14.801196 -7.352345 1.9989592 
  CA	-14.054577 -7.1315556 0.70526 
  CA	-12.639964 -6.521739 0.6748836 
  CA	-12.502367 -5.3814564 1.1411866 
  CA	-11.712177 -7.103974 -0.22528207 
  CA	-10.544843 -6.4377975 -0.86040074 
  CA	-9.307096 -7.092886 -1.6446719 
  CA	-8.72963 -8.076735 -1.1101508 
  CA	-8.55943 -6.2921267 -2.658248 
  CA	-7.202028 -6.4582133 -3.3684871 
  CA	-6.5383716 -5.3210135 -4.216693 
  CA	-7.181306 -4.319299 -4.557177 
  CA	-5.2183084 -5.4915323 -4.747999 
  CA	-4.19165 -4.5849485 -5.362839 
  CA	-4.0518613 -4.3197827 -6.903717 
  CA	-4.120581 -5.2814255 -7.7100067 
  CA	-3.5453157 -3.0742335 -7.3703494 
  CA	-2.6608453 -2.6934857 -8.51765 
  CA	-1.7276306 -1.5213792 -8.258436 
  CA	-2.2109528 -0.47552565 -7.820812 
  CA	-0.38316014 -1.811966 -8.09945 
  CA	0.6220164 -0.985396 -7.3426266 
  CA	1.7914604 -1.7391719 -6.664724 
  CA	2.2306073 -2.7515502 -7.2844715 
  CA	2.457167 -1.1506613 -5.5179157 
  CA	3.5838394 -1.731482 -4.7484274 
  CA	4.5402703 -0.84878904 -3.8800275 
  CA	4.582344 -1.0546453 -2.6466315 
  CA	5.7076907 -0.33697402 -4.5129895 
  CA	5.7887135 0.3766231 -5.840599 
  CA	6.188705 -0.31990874 -7.148249 
  CA	5.984883 0.38030064 -8.156989 
  CA	8.26353 -3.2938757 -7.8718243 
  CA	9.409598 -3.6699398 -8.21719 
  CA	6.902199 -1.5110011 -7.209147 
  CA	7.6754127 -1.9884908 -8.3762665 
