40
 generated by JK
  CA	5.493825 2.1561882 -2.478818 
  CA	6.238448 2.1670542 -1.0981845 
  CA	6.807532 0.7675194 -1.1350098 
  CA	6.1398406 -0.23474249 -0.86435604 
  CA	8.050846 0.877151 -1.6999676 
  CA	9.030931 -0.13931215 -1.7720895 
  CA	7.8945 -1.0512688 -1.8674794 
  CA	7.0401483 -0.5886622 -2.6575143 
  CA	7.4727545 -1.7332233 -0.75796986 
  CA	6.1722965 -2.2765923 -1.0972664 
  CA	4.854471 -1.6773347 -0.40928444 
  CA	4.4846716 -2.2451875 0.55500275 
  CA	4.318675 -0.5378288 -0.82896185 
  CA	2.9652386 -0.13120204 -0.7596292 
  CA	2.8649738 0.08689773 0.7699535 
  CA	3.7148519 0.05616519 1.6884174 
  CA	1.6693023 0.5158996 1.0252802 
  CA	1.8206409 1.406799 2.088451 
  CA	2.180467 2.6463456 1.5136312 
  CA	1.7262502 2.704554 0.40177768 
  CA	3.3908477 3.071508 1.962787 
  CA	3.2706845 3.1752725 3.431727 
  CA	1.9236757 2.4617796 3.5834513 
  CA	1.5252136 2.3177404 4.707901 
  CA	1.4721622 1.538769 2.6316712 
  CA	0.25302622 0.6921572 2.5724313 
  CA	-1.1063814 1.4251404 2.5438612 
  CA	-2.0440226 1.017713 3.1731052 
  CA	-1.1868502 2.6588974 2.1455877 
  CA	-2.2356987 3.6997566 2.4404464 
  CA	-2.3725483 3.9020774 3.906716 
  CA	-1.9760019 3.02389 4.643196 
  CA	-2.816236 5.0817657 4.407802 
  CA	-2.4471831 5.596988 5.708112 
  CA	-2.0315804 4.530049 6.6749516 
  CA	-1.4477112 5.0481157 7.657592 
  CA	-2.2860737 0.85215247 7.4609194 
  CA	-2.919552 -0.047953814 8.006265 
  CA	-2.6731496 3.238848 6.4695625 
  CA	-2.5386999 2.2796202 7.627282 
40
 generated by JK
  CA	5.4249797 2.1470778 -2.4761777 
  CA	6.209302 2.1734362 -1.0919025 
  CA	6.7799306 0.77511156 -1.1062617 
  CA	6.1242585 -0.24115762 -0.84488165 
  CA	8.024798 0.8930391 -1.6676142 
  CA	9.009638 -0.107875705 -1.7392726 
  CA	7.874528 -1.0089446 -1.8382634 
  CA	7.010275 -0.5371875 -2.628117 
  CA	7.466711 -1.7017455 -0.72240853 
  CA	6.1784983 -2.2497456 -1.0675306 
  CA	4.8663063 -1.6450031 -0.39104638 
  CA	4.4765196 -2.2157407 0.5718358 
  CA	4.3362217 -0.50773096 -0.81107926 
  CA	2.9801397 -0.11146146 -0.7380914 
  CA	2.8756971 0.09059751 0.7841019 
  CA	3.7236223 0.052060187 1.6942142 
  CA	1.6681168 0.51108706 1.044086 
  CA	1.8212208 1.397795 2.1187422 
  CA	2.177797 2.6301773 1.5507634 
  CA	1.717902 2.683431 0.42926687 
  CA	3.3933878 3.0557935 2.0068765 
  CA	3.2839668 3.149103 3.468398 
  CA	1.9312338 2.453928 3.6147194 
  CA	1.5302343 2.3273108 4.7508135 
  CA	1.4966991 1.5271734 2.6396441 
  CA	0.27526838 0.69027746 2.5731041 
  CA	-1.0823065 1.4320791 2.5529604 
  CA	-2.0188947 1.0229977 3.1772861 
  CA	-1.1611224 2.6650133 2.1480646 
  CA	-2.2214892 3.6923363 2.4525838 
  CA	-2.3363812 3.8799014 3.9141068 
  CA	-1.9399675 3.0003457 4.648528 
  CA	-2.7856822 5.0476923 4.4177666 
  CA	-2.420677 5.556964 5.708026 
  CA	-1.9786654 4.4971275 6.675187 
  CA	-1.3974311 5.0140405 7.6432333 
  CA	-2.2293785 0.82492244 7.4824715 
  CA	-2.866953 -0.07638231 8.040731 
  CA	-2.6070654 3.2186854 6.477353 
  CA	-2.4470575 2.2672231 7.6446953 
40
 generated by JK
  CA	5.4961014 2.2185142 -2.4652414 
  CA	6.229328 2.2113302 -1.0742385 
  CA	6.7930017 0.8112345 -1.1268272 
  CA	6.132311 -0.19438764 -0.86188257 
  CA	8.032146 0.91274834 -1.6836855 
  CA	9.005208 -0.105213225 -1.7611296 
  CA	7.8865824 -1.0207295 -1.8575963 
  CA	7.0317564 -0.56464463 -2.651556 
  CA	7.4659753 -1.7057172 -0.7553539 
  CA	6.16426 -2.2471664 -1.0900354 
  CA	4.853989 -1.6641225 -0.40556148 
  CA	4.484813 -2.2358282 0.5586298 
  CA	4.3251 -0.52605367 -0.8305299 
  CA	2.9655194 -0.12677461 -0.7571469 
  CA	2.8523004 0.083568394 0.77545404 
  CA	3.6986403 0.05371976 1.6878111 
  CA	1.65656 0.5045239 1.0333928 
  CA	1.7985543 1.3890288 2.0958319 
  CA	2.1603384 2.6354666 1.5251478 
  CA	1.7131143 2.7017431 0.41708708 
  CA	3.369288 3.0474744 1.9730778 
  CA	3.2429197 3.144431 3.4326117 
  CA	1.9054219 2.4249883 3.56573 
  CA	1.5111343 2.2866242 4.6659436 
  CA	1.4582038 1.4977152 2.6228673 
  CA	0.23527116 0.6455056 2.555541 
  CA	-1.1124301 1.3611019 2.526511 
  CA	-2.0514545 0.96007884 3.1680784 
  CA	-1.1856706 2.5898104 2.1257687 
  CA	-2.2200463 3.6335723 2.4223294 
  CA	-2.3547292 3.848144 3.8786786 
  CA	-1.9673444 2.9726129 4.6158633 
  CA	-2.7932491 5.0444384 4.3948083 
  CA	-2.4215155 5.559344 5.6859903 
  CA	-2.008614 4.486566 6.6464167 
  CA	-1.4222226 4.988235 7.621892 
  CA	-2.2547305 0.8097254 7.4169626 
  CA	-2.8942688 -0.07510871 7.961626 
  CA	-2.6559052 3.1919627 6.446146 
  CA	-2.5251763 2.2228365 7.601263 
40
 generated by JK
  CA	5.5665393 2.1053522 -2.5382202 
  CA	6.2566595 2.1310103 -1.1772777 
  CA	6.8090477 0.7322681 -1.2129412 
  CA	6.139428 -0.280435 -0.93953836 
  CA	8.050911 0.8299825 -1.7570331 
  CA	9.025682 -0.18843812 -1.8097885 
  CA	7.899539 -1.1069032 -1.903454 
  CA	7.053204 -0.66356105 -2.6962357 
  CA	7.4755354 -1.776209 -0.8040018 
  CA	6.177845 -2.3035417 -1.1510214 
  CA	4.874899 -1.7131747 -0.45115152 
  CA	4.4930797 -2.2674127 0.51966804 
  CA	4.339819 -0.576416 -0.860785 
  CA	2.9846094 -0.16196507 -0.7769628 
  CA	2.8714795 0.07192302 0.74530315 
  CA	3.7199068 0.040444672 1.6685641 
  CA	1.6751316 0.5115812 0.9938742 
  CA	1.8234224 1.3991129 2.0630658 
  CA	2.1860766 2.654392 1.4857726 
  CA	1.7399275 2.717356 0.3619448 
  CA	3.390358 3.0768936 1.9455115 
  CA	3.262926 3.1846354 3.4041789 
  CA	1.9153879 2.4668884 3.5628362 
  CA	1.5272994 2.3244402 4.6718173 
  CA	1.4482965 1.5517719 2.619974 
  CA	0.2362592 0.7177262 2.556842 
  CA	-1.125859 1.4508841 2.548566 
  CA	-2.0642426 1.0384603 3.1853375 
  CA	-1.214511 2.6920853 2.1658678 
  CA	-2.2652948 3.7378454 2.4719336 
  CA	-2.4222817 3.9419713 3.9341843 
  CA	-2.021375 3.0672603 4.6739035 
  CA	-2.8590598 5.128849 4.4443398 
  CA	-2.4912336 5.660277 5.7364454 
  CA	-2.1103773 4.6001215 6.723432 
  CA	-1.5350757 5.116499 7.7277784 
  CA	-2.3657258 0.9369973 7.508817 
  CA	-3.0000882 0.0350686 8.043463 
  CA	-2.7653534 3.3094826 6.510125 
  CA	-2.6600518 2.3551686 7.6763697 
40
 generated by JK
  CA	5.5020185 2.071862 -2.5131335 
  CA	6.2398186 2.119431 -1.1593703 
  CA	6.7877502 0.7287003 -1.1809671 
  CA	6.1300507 -0.29698524 -0.91726017 
  CA	8.026873 0.8351098 -1.7181458 
  CA	9.004266 -0.17401059 -1.7631333 
  CA	7.8755903 -1.0766943 -1.8562425 
  CA	7.024955 -0.6307262 -2.649995 
  CA	7.460311 -1.7514918 -0.7621356 
  CA	6.185585 -2.2804282 -1.1144564 
  CA	4.8880734 -1.6810275 -0.42666242 
  CA	4.483864 -2.2387986 0.5399899 
  CA	4.359618 -0.54039335 -0.83105576 
  CA	3.0053148 -0.13407063 -0.74982446 
  CA	2.8818576 0.09866083 0.7696405 
  CA	3.7292995 0.066563606 1.6856145 
  CA	1.6744905 0.5238097 1.0216188 
  CA	1.822523 1.4078298 2.0994606 
  CA	2.18443 2.648899 1.5238994 
  CA	1.7340393 2.7099407 0.3886661 
  CA	3.3903275 3.074035 1.988888 
  CA	3.269361 3.17495 3.4377275 
  CA	1.9170866 2.4744864 3.5892591 
  CA	1.5284954 2.3466887 4.7115464 
  CA	1.4676335 1.5570565 2.6210315 
  CA	0.2621676 0.7290681 2.5480072 
  CA	-1.1027474 1.470432 2.5523014 
  CA	-2.0391085 1.0568041 3.1809006 
  CA	-1.1910725 2.707428 2.1533945 
  CA	-2.2397017 3.7488844 2.468459 
  CA	-2.380833 3.9314268 3.926023 
  CA	-1.9766232 3.061623 4.6640267 
  CA	-2.8215985 5.1093326 4.428357 
  CA	-2.4587185 5.63024 5.7094088 
  CA	-2.051999 4.57466 6.6979976 
  CA	-1.4794066 5.089958 7.6881456 
  CA	-2.3023944 0.91086054 7.4990015 
  CA	-2.9430974 0.0060425997 8.043043 
  CA	-2.6890035 3.2922764 6.49129 
  CA	-2.5557268 2.3446722 7.662902 
40
 generated by JK
  CA	5.656815 1.9299638 -2.7107615 
  CA	6.3129272 1.9858166 -1.336752 
  CA	6.850802 0.61607254 -1.3120279 
  CA	6.1903367 -0.3888702 -1.02636 
  CA	8.095067 0.724427 -1.8188875 
  CA	9.054432 -0.2890411 -1.8623967 
  CA	7.904229 -1.1902341 -1.9521562 
  CA	7.0577936 -0.7413485 -2.7373476 
  CA	7.478589 -1.8518741 -0.8471155 
  CA	6.176468 -2.3629751 -1.1853876 
  CA	4.890796 -1.7524316 -0.4939184 
  CA	4.506299 -2.3048673 0.48624444 
  CA	4.340762 -0.61374915 -0.89519143 
  CA	2.994639 -0.19025993 -0.8030397 
  CA	2.8884845 0.046684027 0.7195147 
  CA	3.7309813 0.0017227829 1.647249 
  CA	1.7074846 0.50216234 0.9595625 
  CA	1.8476888 1.3902074 2.0354602 
  CA	2.1960752 2.6472325 1.4666069 
  CA	1.7550652 2.7129219 0.34406203 
  CA	3.3992229 3.0681932 1.9271021 
  CA	3.2967758 3.1668663 3.385117 
  CA	1.9425445 2.478117 3.5618844 
  CA	1.5528293 2.3491716 4.6821613 
  CA	1.4504917 1.574942 2.6140456 
  CA	0.21010447 0.77388424 2.552471 
  CA	-1.148882 1.5327129 2.559308 
  CA	-2.0861871 1.1051905 3.1763458 
  CA	-1.2382572 2.8007402 2.212307 
  CA	-2.2843294 3.8414211 2.5433922 
  CA	-2.4611962 4.023894 4.004738 
  CA	-2.041128 3.1709352 4.750919 
  CA	-2.9197454 5.1850452 4.5107822 
  CA	-2.5752995 5.7301745 5.8023586 
  CA	-2.2092314 4.6982684 6.82136 
  CA	-1.6260934 5.2276936 7.816394 
  CA	-2.5320158 1.0663435 7.6724315 
  CA	-3.1749144 0.16590315 8.212768 
  CA	-2.8985248 3.429067 6.650401 
  CA	-2.8071728 2.5019426 7.8480883 
40
 generated by JK
  CA	5.6802816 1.9039974 -2.7195714 
  CA	6.318508 1.9683663 -1.358373 
  CA	6.8525395 0.5943009 -1.3335111 
  CA	6.187827 -0.4158887 -1.046138 
  CA	8.097004 0.70192575 -1.8386343 
  CA	9.057711 -0.3109746 -1.8763747 
  CA	7.908635 -1.2135239 -1.9676586 
  CA	7.0631905 -0.76953423 -2.7538722 
  CA	7.4830613 -1.8696275 -0.8663455 
  CA	6.1815376 -2.3768792 -1.2115287 
  CA	4.8971033 -1.7663603 -0.51394546 
  CA	4.5072165 -2.3117516 0.46850133 
  CA	4.347415 -0.62928236 -0.9111223 
  CA	2.999815 -0.20191646 -0.8144805 
  CA	2.890516 0.041070104 0.70444167 
  CA	3.7321863 -0.0036131442 1.6358174 
  CA	1.7072935 0.5015668 0.94225955 
  CA	1.8516079 1.3901305 2.0204778 
  CA	2.2018735 2.6543236 1.4512312 
  CA	1.7629082 2.7195852 0.3212747 
  CA	3.4038606 3.077282 1.9182518 
  CA	3.2995756 3.1785917 3.3760037 
  CA	1.9426433 2.489634 3.5578275 
  CA	1.557408 2.357342 4.6757145 
  CA	1.4447839 1.5889189 2.6117918 
  CA	0.20994258 0.7937818 2.5501142 
  CA	-1.1539613 1.5547323 2.561454 
  CA	-2.091354 1.1258781 3.17973 
  CA	-1.2475514 2.8250337 2.219211 
  CA	-2.2995918 3.8655467 2.5534706 
  CA	-2.4816914 4.049634 4.0174246 
  CA	-2.0594287 3.1958385 4.763785 
  CA	-2.9364395 5.210631 4.526242 
  CA	-2.5920682 5.759201 5.817566 
  CA	-2.2367606 4.7285814 6.8407145 
  CA	-1.6564796 5.2599597 7.845004 
  CA	-2.5609577 1.1021398 7.6908865 
  CA	-3.2010593 0.1971046 8.226854 
  CA	-2.9313352 3.4609246 6.661706 
  CA	-2.8492928 2.5365448 7.8589706 
40
 generated by JK
  CA	5.705918 1.8650804 -2.767483 
  CA	6.334777 1.9319046 -1.3953134 
  CA	6.868783 0.56610435 -1.3519015 
  CA	6.2050624 -0.4362348 -1.058314 
  CA	8.11635 0.67913365 -1.851717 
  CA	9.074164 -0.33245632 -1.8937523 
  CA	7.915764 -1.2300456 -1.9846374 
  CA	7.067507 -0.7786249 -2.7672324 
  CA	7.490113 -1.8873059 -0.8778511 
  CA	6.1824036 -2.3946354 -1.2174953 
  CA	4.8978057 -1.7774323 -0.52447784 
  CA	4.514839 -2.3262844 0.46203762 
  CA	4.3410378 -0.64004695 -0.9238174 
  CA	2.9967294 -0.21045929 -0.82719487 
  CA	2.894747 0.028621435 0.6962501 
  CA	3.7340612 -0.020627707 1.6286972 
  CA	1.7182695 0.49409014 0.9320303 
  CA	1.8613594 1.3848863 2.0104754 
  CA	2.2053115 2.6499372 1.4446821 
  CA	1.7672157 2.7148528 0.31980777 
  CA	3.4083202 3.0737095 1.9085124 
  CA	3.313844 3.1710842 3.3712795 
  CA	1.9535985 2.4900308 3.5596213 
  CA	1.5661879 2.358444 4.682111 
  CA	1.4476116 1.590432 2.6149924 
  CA	0.20032823 0.8027294 2.5566866 
  CA	-1.161595 1.5710033 2.5638194 
  CA	-2.097812 1.1391364 3.1746569 
  CA	-1.2520947 2.8490696 2.2323337 
  CA	-2.302021 3.8875735 2.572843 
  CA	-2.488178 4.068287 4.039417 
  CA	-2.0632765 3.2198405 4.7875185 
  CA	-2.9505672 5.221295 4.547335 
  CA	-2.6141002 5.7724934 5.8429594 
  CA	-2.2583582 4.749054 6.8711796 
  CA	-1.6725991 5.285105 7.869731 
  CA	-2.6072474 1.1307062 7.739358 
  CA	-3.2486696 0.22613138 8.277795 
  CA	-2.9658182 3.487284 6.7059746 
  CA	-2.8875484 2.570465 7.911316 
40
 generated by JK
  CA	5.697742 1.8562474 -2.7661798 
  CA	6.3327703 1.9279678 -1.398417 
  CA	6.8632927 0.5641106 -1.3563876 
  CA	6.203775 -0.44307342 -1.0674698 
  CA	8.107567 0.67565495 -1.8493054 
  CA	9.062439 -0.3353905 -1.8859742 
  CA	7.9065638 -1.230962 -1.9759289 
  CA	7.0606065 -0.7844969 -2.7598696 
  CA	7.4802723 -1.8857049 -0.8732034 
  CA	6.178233 -2.388299 -1.2139797 
  CA	4.900253 -1.7723086 -0.5213175 
  CA	4.5095263 -2.3187172 0.46257895 
  CA	4.3473873 -0.6339047 -0.91681707 
  CA	3.0022964 -0.20537889 -0.8185236 
  CA	2.8940487 0.036879122 0.7009125 
  CA	3.7337108 -0.011443615 1.6318663 
  CA	1.7159612 0.4995698 0.93751746 
  CA	1.8558369 1.3868968 2.017524 
  CA	2.20163 2.6493442 1.4518361 
  CA	1.7644312 2.7163782 0.32434225 
  CA	3.4031715 3.0700521 1.9176754 
  CA	3.3064091 3.1671078 3.3738594 
  CA	1.949452 2.4879403 3.5575747 
  CA	1.5627583 2.3615232 4.6780767 
  CA	1.4464488 1.5905225 2.6088622 
  CA	0.20110287 0.80457103 2.545694 
  CA	-1.1597579 1.5722617 2.5614312 
  CA	-2.0974095 1.1397424 3.1734056 
  CA	-1.2518979 2.8497467 2.2284691 
  CA	-2.2995443 3.8886583 2.5694242 
  CA	-2.4854672 4.0652127 4.0312343 
  CA	-2.0575492 3.2190418 4.779366 
  CA	-2.9481401 5.2184424 4.5387464 
  CA	-2.6101167 5.7693563 5.8284883 
  CA	-2.256059 4.746488 6.8590693 
  CA	-1.6722233 5.280015 7.8561554 
  CA	-2.6008027 1.128962 7.7293453 
  CA	-3.2451882 0.22716637 8.268906 
  CA	-2.9602606 3.4856372 6.696329 
  CA	-2.8783758 2.5687122 7.9024143 
40
 generated by JK
  CA	5.726479 1.8140163 -2.807903 
  CA	6.3497524 1.891851 -1.4380589 
  CA	6.8763843 0.5299403 -1.3852527 
  CA	6.216792 -0.4764509 -1.094114 
  CA	8.12233 0.64480054 -1.8700078 
  CA	9.073751 -0.3664847 -1.9078398 
  CA	7.9128036 -1.2588605 -1.9983476 
  CA	7.065774 -0.81102294 -2.7808769 
  CA	7.486554 -1.9113574 -0.89587235 
  CA	6.181118 -2.4076028 -1.2358385 
  CA	4.9067087 -1.7870245 -0.5417956 
  CA	4.5150156 -2.3299854 0.44535404 
  CA	4.351993 -0.64831305 -0.93372905 
  CA	3.0078077 -0.21493042 -0.8319097 
  CA	2.8985703 0.027493834 0.68799305 
  CA	3.7356248 -0.021573037 1.6222351 
  CA	1.7225922 0.49482164 0.9220207 
  CA	1.861612 1.3837358 2.0029066 
  CA	2.2055159 2.6509264 1.4390695 
  CA	1.7706234 2.7172287 0.31016013 
  CA	3.4077425 3.0704894 1.9076849 
  CA	3.3155012 3.166273 3.364702 
  CA	1.9551883 2.4929218 3.5530758 
  CA	1.5690764 2.3669093 4.6742735 
  CA	1.4439812 1.5990107 2.6048849 
  CA	0.1923827 0.8218545 2.5440788 
  CA	-1.1696914 1.5944961 2.5619807 
  CA	-2.1066911 1.1592711 3.1709127 
  CA	-1.2614187 2.8790483 2.238852 
  CA	-2.3099482 3.9169486 2.5880508 
  CA	-2.5016656 4.094613 4.051729 
  CA	-2.0692916 3.2516227 4.8026686 
  CA	-2.9684944 5.2431574 4.5614266 
  CA	-2.6366332 5.796913 5.8535805 
  CA	-2.2885592 4.7794933 6.890447 
  CA	-1.701983 5.3168306 7.887452 
  CA	-2.649344 1.1690933 7.776555 
  CA	-3.2955065 0.26843122 8.317244 
  CA	-3.0038407 3.5236866 6.7354784 
  CA	-2.9267588 2.612413 7.947132 
