40
 generated by JK
  CA	7.548049 1.0078512 -0.34460455 
  CA	6.6428714 0.3748048 -1.3406271 
  CA	6.3168664 1.5984043 -1.8726016 
  CA	6.070233 1.8666203 -3.0567286 
  CA	5.4788985 2.0476604 -0.9827783 
  CA	4.59053 2.4236577 -2.0076861 
  CA	3.6880114 2.7396414 -1.1015605 
  CA	2.7270281 3.3134496 -1.5515363 
  CA	3.871035 2.0502796 0.078370504 
  CA	2.7455032 1.8340302 0.93358207 
  CA	3.0873284 3.094824 1.2248095 
  CA	3.3609073 3.4696095 2.4124446 
  CA	2.5569327 3.8215086 0.21644957 
  CA	2.1862109 4.7415633 1.0740584 
  CA	1.23012 3.6784828 1.6846718 
  CA	0.11820805 3.6023695 1.1920215 
  CA	1.3799292 3.7237275 2.8690155 
  CA	0.067460395 3.6658998 3.202909 
  CA	0.5996154 4.5950894 4.0980916 
  CA	-0.14188173 5.50078 4.337807 
  CA	1.8569348 4.3287616 4.6481767 
  CA	2.274856 5.2961144 5.7031455 
  CA	1.3299868 6.2568355 5.1149387 
  CA	1.2419258 7.4049277 5.5853424 
  CA	0.54603565 5.6403856 4.192856 
  CA	-0.5996604 6.275576 3.6739917 
  CA	-0.7736642 6.7729096 4.9807134 
  CA	-1.1673417 7.94297 5.1552496 
  CA	-0.16723135 5.856787 5.874749 
  CA	-0.27952474 6.1559587 7.2539043 
  CA	-1.4955207 6.9078584 6.896403 
  CA	-2.5776522 6.6682124 7.41928 
  CA	-1.1753939 7.996093 6.25566 
  CA	-2.1772263 8.884666 6.5309467 
  CA	-2.7968993 8.494388 5.2143273 
  CA	-3.9612849 8.160124 5.01716 
  CA	-2.0373657 10.41858 3.0866654 
  CA	-2.215683 10.962739 2.0014613 
  CA	-2.0691035 9.021592 4.3073015 
  CA	-2.9445763 9.349896 3.2881439 
40
 generated by JK
  CA	7.9116087 -0.09434709 -0.74943864 
  CA	6.9506917 -0.5717651 -1.7289709 
  CA	6.630223 0.66150117 -2.2841423 
  CA	6.513904 0.8898223 -3.480021 
  CA	5.78547 1.215675 -1.4787534 
  CA	4.9235287 1.7999866 -2.4121575 
  CA	3.9116948 2.1686196 -1.5281122 
  CA	2.981412 2.7943618 -1.9870429 
  CA	4.0283103 1.5736003 -0.29368886 
  CA	2.912462 1.5625393 0.5473032 
  CA	3.2248347 2.860821 0.89854854 
  CA	3.6171532 3.1949878 2.0208294 
  CA	2.6048234 3.6654413 0.066211686 
  CA	2.3130164 4.6880903 0.8835021 
  CA	1.2731705 3.9078975 1.5495102 
  CA	0.18647262 3.8440397 0.99388254 
  CA	1.3919775 3.9956603 2.7806156 
  CA	0.119190134 4.0035176 3.3132014 
  CA	0.5377711 5.0215955 4.206852 
  CA	-0.21494585 5.947464 4.363996 
  CA	1.7335676 4.819388 4.845862 
  CA	2.0789158 5.8151016 5.8328505 
  CA	1.0646788 6.75616 5.3627906 
  CA	0.95362216 7.886594 5.8643193 
  CA	0.22995004 6.155698 4.513792 
  CA	-0.9722292 6.780809 4.097246 
  CA	-1.2177378 7.319366 5.38261 
  CA	-1.5797427 8.477567 5.516038 
  CA	-0.6529539 6.5199823 6.3352613 
  CA	-0.61785644 6.967812 7.673116 
  CA	-1.8139122 7.782705 7.4471684 
  CA	-2.87448 7.5208106 8.038222 
  CA	-1.5531055 8.917104 6.8367634 
  CA	-2.5195804 9.887935 7.0540733 
  CA	-3.1136284 9.771541 5.769083 
  CA	-4.2868104 9.473581 5.5897913 
  CA	-2.3155077 12.028748 3.6538084 
  CA	-2.5369494 12.6500845 2.6274004 
  CA	-2.431051 10.446918 4.933873 
  CA	-3.2227092 10.927842 3.9124587 
40
 generated by JK
  CA	8.154497 -0.7001988 -0.9416899 
  CA	7.1499066 -1.089047 -1.9144858 
  CA	6.820641 0.15139502 -2.4894965 
  CA	6.7652645 0.3551076 -3.6940262 
  CA	5.9758286 0.77965444 -1.7319118 
  CA	5.1357155 1.478206 -2.6024058 
  CA	4.060166 1.865029 -1.7462739 
  CA	3.148696 2.5127017 -2.211233 
  CA	4.12853 1.3361869 -0.48505828 
  CA	3.0210927 1.4398892 0.3477782 
  CA	3.3222988 2.7541282 0.7302471 
  CA	3.7723062 3.0571399 1.8306385 
  CA	2.6562111 3.6104162 -0.018852983 
  CA	2.4039438 4.683503 0.77713674 
  CA	1.304832 4.068887 1.4642724 
  CA	0.22486025 4.010872 0.89155066 
  CA	1.4109166 4.1860285 2.728426 
  CA	0.16590214 4.224015 3.3570018 
  CA	0.51630604 5.2811947 4.2667055 
  CA	-0.24504277 6.2168365 4.3873944 
  CA	1.6710302 5.1232443 4.9639773 
  CA	1.9669143 6.146734 5.9202905 
  CA	0.91994065 7.067698 5.5037866 
  CA	0.79871225 8.188899 6.0166917 
  CA	0.056651764 6.4869347 4.6763186 
  CA	-1.1740427 7.104908 4.3064775 
  CA	-1.454304 7.6770916 5.575114 
  CA	-1.8075852 8.842246 5.684626 
  CA	-0.8996817 6.9417844 6.565189 
  CA	-0.80090994 7.4668846 7.8663692 
  CA	-1.986408 8.326714 7.732047 
  CA	-3.034914 8.055654 8.356904 
  CA	-1.7563142 9.481606 7.136379 
  CA	-2.7068374 10.497344 7.3153815 
  CA	-3.3017497 10.533257 6.032573 
  CA	-4.481408 10.2635145 5.8561907 
  CA	-2.4842935 12.987987 3.9062252 
  CA	-2.7308452 13.643357 2.9066923 
  CA	-2.6276255 11.282595 5.2314262 
  CA	-3.3870742 11.862517 4.2065096 
40
 generated by JK
  CA	8.017977 -0.35770306 -0.8092854 
  CA	7.0319514 -0.7954778 -1.7877272 
  CA	6.70446 0.44393295 -2.3591583 
  CA	6.612738 0.6629703 -3.5649817 
  CA	5.8655396 1.0339538 -1.5814269 
  CA	5.019498 1.6725372 -2.4795136 
  CA	3.9751658 2.047519 -1.6105049 
  CA	3.0542622 2.679633 -2.0742247 
  CA	4.0721335 1.4890213 -0.36420694 
  CA	2.9607518 1.535015 0.47121084 
  CA	3.2701871 2.8346393 0.83762074 
  CA	3.69206 3.1467428 1.9533731 
  CA	2.631043 3.6667864 0.04279225 
  CA	2.360132 4.7038465 0.8506554 
  CA	1.2950621 4.0067306 1.5220773 
  CA	0.21712956 3.9436784 0.9600266 
  CA	1.4093566 4.1148043 2.7766626 
  CA	0.16201523 4.1327276 3.3572867 
  CA	0.5488924 5.1768084 4.2624407 
  CA	-0.21361789 6.1049886 4.398452 
  CA	1.7261624 4.996151 4.933208 
  CA	2.0474718 6.009416 5.9079585 
  CA	1.0180125 6.935157 5.460335 
  CA	0.8971331 8.0583515 5.961518 
  CA	0.1660046 6.3424625 4.6165533 
  CA	-1.0534465 6.95861 4.21896 
  CA	-1.3146037 7.519441 5.489529 
  CA	-1.6759735 8.687561 5.6071224 
  CA	-0.7496469 6.7482586 6.455202 
  CA	-0.6694675 7.238335 7.768872 
  CA	-1.8663486 8.076644 7.6053495 
  CA	-2.9255712 7.812947 8.215588 
  CA	-1.623604 9.212366 6.9944277 
  CA	-2.580993 10.206038 7.1894784 
  CA	-3.1784918 10.170308 5.8963456 
  CA	-4.3596907 9.889079 5.714571 
  CA	-2.3646362 12.525283 3.7625008 
  CA	-2.5970473 13.164842 2.747213 
  CA	-2.4948432 10.877116 5.0696535 
  CA	-3.2746716 11.411442 4.04228 
40
 generated by JK
  CA	8.614818 -1.869897 -1.3531085 
  CA	7.527114 -2.1039479 -2.303826 
  CA	7.199472 -0.83987963 -2.9243665 
  CA	7.2661796 -0.6849741 -4.131334 
  CA	6.339962 -0.06993392 -2.2392783 
  CA	5.519677 0.85069805 -3.0245185 
  CA	4.3461504 1.2753099 -2.2010841 
  CA	3.4606981 1.9667181 -2.6858647 
  CA	4.3091874 0.848657 -0.8746886 
  CA	3.2192743 1.1510004 -0.052397393 
  CA	3.4988286 2.5177433 0.38957036 
  CA	4.0553 2.7587912 1.4437313 
  CA	2.749311 3.478098 -0.19281024 
  CA	2.5723662 4.6611614 0.5556021 
  CA	1.3574581 4.3461084 1.2988344 
  CA	0.28380108 4.3168964 0.6924684 
  CA	1.4409146 4.506735 2.6128156 
  CA	0.2372078 4.611049 3.4412339 
  CA	0.45795125 5.747008 4.3663173 
  CA	-0.31483555 6.686888 4.4201136 
  CA	1.5366182 5.664005 5.1696677 
  CA	1.7663614 6.759603 6.0753455 
  CA	0.6285824 7.6621366 5.7507586 
  CA	0.4917851 8.764564 6.2894683 
  CA	-0.29092667 7.111096 4.969826 
  CA	-1.5752121 7.7341595 4.6972437 
  CA	-1.928417 8.353396 5.957101 
  CA	-2.2538548 9.515722 6.022746 
  CA	-1.3922801 7.7240744 7.023356 
  CA	-1.1825775 8.406432 8.261776 
  CA	-2.3230844 9.343138 8.279534 
  CA	-3.3397877 9.046324 8.9734535 
  CA	-2.1587873 10.541897 7.703676 
  CA	-3.067975 11.65702 7.8440523 
  CA	-3.6623394 11.973434 6.5596766 
  CA	-4.866069 11.762553 6.382011 
  CA	-2.8050058 14.784295 4.4170494 
  CA	-3.099735 15.505675 3.4565876 
  CA	-3.0108726 12.869951 5.8177433 
  CA	-3.7081425 13.61565 4.7898936 
40
 generated by JK
  CA	8.797958 -2.3177505 -1.4982276 
  CA	7.673034 -2.4887695 -2.4305134 
  CA	7.3426895 -1.2136215 -3.0773444 
  CA	7.4528527 -1.0812337 -4.2874904 
  CA	6.4834547 -0.38926402 -2.4219933 
  CA	5.671105 0.6167046 -3.1604702 
  CA	4.456881 1.0557766 -2.3649898 
  CA	3.5874877 1.7597812 -2.855369 
  CA	4.379383 0.664739 -1.019321 
  CA	3.2913604 1.0534153 -0.20759672 
  CA	3.5650876 2.4375746 0.2594698 
  CA	4.167276 2.6571798 1.2944659 
  CA	2.7885904 3.438979 -0.25564712 
  CA	2.632658 4.6552315 0.47079444 
  CA	1.3815444 4.4630895 1.2295307 
  CA	0.31288445 4.452554 0.61879843 
  CA	1.4552714 4.65001 2.5609603 
  CA	0.27794933 4.785457 3.468444 
  CA	0.44632584 5.946716 4.4121323 
  CA	-0.32788265 6.8892174 4.443691 
  CA	1.4913986 5.894868 5.2578816 
  CA	1.6889378 7.0152674 6.1422505 
  CA	0.52231616 7.9149237 5.8506045 
  CA	0.37528947 9.013305 6.3968105 
  CA	-0.43020418 7.378145 5.0851507 
  CA	-1.7320067 7.995365 4.8483214 
  CA	-2.101029 8.635936 6.098054 
  CA	-2.427038 9.806764 6.146644 
  CA	-1.5724459 8.043321 7.194949 
  CA	-1.3223591 8.792428 8.401716 
  CA	-2.4462576 9.765919 8.492932 
  CA	-3.4483113 9.464727 9.202448 
  CA	-2.2970848 10.981332 7.918585 
  CA	-3.1922727 12.129476 8.041616 
  CA	-3.7938423 12.563469 6.75012 
  CA	-4.999132 12.376634 6.5662403 
  CA	-2.9219713 15.510209 4.5962596 
  CA	-3.2353063 16.25897 3.6538918 
  CA	-3.1463346 13.5139265 6.025607 
  CA	-3.820627 14.324551 5.000703 
40
 generated by JK
  CA	8.792009 -2.3028927 -1.4728671 
  CA	7.6596546 -2.470813 -2.406961 
  CA	7.3312373 -1.1919647 -3.0610836 
  CA	7.4289975 -1.0618293 -4.270051 
  CA	6.484623 -0.36473247 -2.400849 
  CA	5.669726 0.6400436 -3.1259742 
  CA	4.4550705 1.078494 -2.3380213 
  CA	3.5844796 1.7791866 -2.8347476 
  CA	4.3743844 0.6927508 -0.9990966 
  CA	3.2948895 1.0804534 -0.19221982 
  CA	3.5654871 2.4587708 0.27769476 
  CA	4.1645975 2.669131 1.321366 
  CA	2.7927048 3.4597251 -0.24178821 
  CA	2.6391892 4.6693964 0.47915414 
  CA	1.3853333 4.485461 1.2372195 
  CA	0.32289493 4.475994 0.62810737 
  CA	1.4676363 4.6768155 2.566511 
  CA	0.30223957 4.809526 3.4701538 
  CA	0.46202612 5.9737463 4.422751 
  CA	-0.31134441 6.918973 4.4543805 
  CA	1.5068208 5.920118 5.2708144 
  CA	1.6946933 7.0475154 6.1654572 
  CA	0.5276006 7.942252 5.859936 
  CA	0.37721354 9.040857 6.403752 
  CA	-0.4296005 7.406259 5.08855 
  CA	-1.7192721 8.02236 4.846853 
  CA	-2.0887344 8.665321 6.0873404 
  CA	-2.420613 9.84393 6.134656 
  CA	-1.5550128 8.06747 7.180267 
  CA	-1.2958347 8.813696 8.378387 
  CA	-2.4229496 9.796348 8.490495 
  CA	-3.420484 9.502157 9.19902 
  CA	-2.2741277 10.999932 7.9113193 
  CA	-3.1648927 12.153906 8.037065 
  CA	-3.7715406 12.596782 6.728132 
  CA	-4.980904 12.410624 6.5352483 
  CA	-2.898836 15.532301 4.5673003 
  CA	-3.2132757 16.28059 3.622427 
  CA	-3.125017 13.535697 5.993552 
  CA	-3.8007421 14.343826 4.9772134 
40
 generated by JK
  CA	8.98584 -2.740422 -1.6148251 
  CA	7.813203 -2.8464973 -2.5362687 
  CA	7.484564 -1.5581864 -3.2098315 
  CA	7.6305385 -1.4451118 -4.42226 
  CA	6.635305 -0.6741674 -2.5753398 
  CA	5.824423 0.41274962 -3.257701 
  CA	4.5756655 0.8637056 -2.4990106 
  CA	3.72323 1.5716108 -3.003285 
  CA	4.4522285 0.5182148 -1.14281 
  CA	3.3808646 0.98805714 -0.3431911 
  CA	3.640751 2.3769379 0.1532871 
  CA	4.2797227 2.5626366 1.1841372 
  CA	2.8330789 3.4119883 -0.30233356 
  CA	2.7027576 4.657283 0.39787486 
  CA	1.4078412 4.5936913 1.1682442 
  CA	0.34672523 4.605849 0.5595319 
  CA	1.4835519 4.805194 2.5131755 
  CA	0.34549755 4.9643993 3.484952 
  CA	0.45198452 6.1546154 4.4535813 
  CA	-0.32408613 7.0994596 4.460824 
  CA	1.4621537 6.135564 5.3444443 
  CA	1.6184685 7.2933993 6.222113 
  CA	0.41692907 8.178165 5.947045 
  CA	0.26207826 9.276847 6.497427 
  CA	-0.5678711 7.6592813 5.1866965 
  CA	-1.8740921 8.272996 4.981866 
  CA	-2.2650907 8.939836 6.2127433 
  CA	-2.5972526 10.122134 6.243922 
  CA	-1.7369957 8.380017 7.3393574 
  CA	-1.447911 9.187655 8.501702 
  CA	-2.5497026 10.201949 8.68023 
  CA	-3.5319722 9.905163 9.405458 
  CA	-2.417071 11.425487 8.107027 
  CA	-3.2887008 12.608351 8.222889 
  CA	-3.9062088 13.157504 6.9028883 
  CA	-5.1199203 13.001478 6.6994834 
  CA	-3.0255613 16.227041 4.7328835 
  CA	-3.357773 16.998075 3.80688 
  CA	-3.2651305 14.148686 6.1849804 
  CA	-3.9238088 15.026907 5.173692 
40
 generated by JK
  CA	9.308047 -3.4600637 -1.8633498 
  CA	8.083161 -3.4751046 -2.7648451 
  CA	7.7460027 -2.1771166 -3.4750602 
  CA	7.9535837 -2.0922248 -4.676713 
  CA	6.888667 -1.1770391 -2.8696592 
  CA	6.0800624 0.042088594 -3.4897242 
  CA	4.7778 0.50404555 -2.771627 
  CA	3.9378364 1.2428676 -3.2849576 
  CA	4.568275 0.21779856 -1.3812345 
  CA	3.507167 0.8038663 -0.5863791 
  CA	3.765199 2.2345893 -0.06841719 
  CA	4.4516687 2.3855534 0.94675046 
  CA	2.907445 3.3398058 -0.4387866 
  CA	2.8172414 4.654214 0.23321903 
  CA	1.4340506 4.769246 1.028908 
  CA	0.361318 4.8094063 0.4134438 
  CA	1.5047319 5.0103025 2.386352 
  CA	0.37991613 5.2022524 3.4627373 
  CA	0.3973024 6.4185705 4.46666 
  CA	-0.37487763 7.3660555 4.450891 
  CA	1.3425791 6.4398923 5.420131 
  CA	1.4622056 7.6637216 6.277493 
  CA	0.20007408 8.543508 6.044413 
  CA	0.04936906 9.627691 6.603815 
  CA	-0.81378406 8.05259 5.292672 
  CA	-2.12625 8.6793785 5.138708 
  CA	-2.5566099 9.378572 6.376408 
  CA	-2.880343 10.573577 6.3925195 
  CA	-2.0233545 8.876583 7.555469 
  CA	-1.7185636 9.781485 8.673845 
  CA	-2.7835674 10.849571 8.946181 
  CA	-3.7326035 10.534418 9.681451 
  CA	-2.679453 12.094042 8.376118 
  CA	-3.5237792 13.338842 8.481453 
  CA	-4.1650033 14.0515175 7.141538 
  CA	-5.3858056 13.938879 6.932981 
  CA	-3.2651103 17.322626 4.952339 
  CA	-3.635415 18.112436 4.035633 
  CA	-3.5178058 15.122857 6.450448 
  CA	-4.156301 16.093496 5.4498568 
40
 generated by JK
  CA	9.360702 -3.598532 -1.9048198 
  CA	8.12593 -3.5968735 -2.802086 
  CA	7.7878947 -2.293925 -3.518613 
  CA	8.006556 -2.2158005 -4.719826 
  CA	6.9274287 -1.2788022 -2.9239447 
  CA	6.1173882 -0.039746407 -3.5414715 
  CA	4.8047576 0.4287566 -2.8252754 
  CA	3.97107 1.1729003 -3.335925 
  CA	4.582916 0.15058836 -1.4280858 
  CA	3.5214062 0.75356054 -0.6332598 
  CA	3.7781646 2.1946135 -0.110606834 
  CA	4.4765944 2.3412247 0.8959021 
  CA	2.9154797 3.3176448 -0.4629283 
  CA	2.8291605 4.6460624 0.2056342 
  CA	1.4345872 4.7875075 1.0068564 
  CA	0.36019072 4.833152 0.39075747 
  CA	1.5002322 5.036692 2.3681486 
  CA	0.3804704 5.2397475 3.4663682 
  CA	0.38735056 6.4587564 4.472884 
  CA	-0.38532427 7.403013 4.4526434 
  CA	1.3228261 6.491245 5.4377017 
  CA	1.4353372 7.7237134 6.290995 
  CA	0.167231 8.607015 6.0657544 
  CA	0.014661573 9.69034 6.6267347 
  CA	-0.8525637 8.121746 5.3170485 
  CA	-2.1705854 8.749828 5.1689506 
  CA	-2.608628 9.453073 6.4097013 
  CA	-2.928535 10.647561 6.4197865 
  CA	-2.0735812 8.958971 7.5992966 
  CA	-1.7681129 9.881921 8.709617 
  CA	-2.819138 10.958822 8.99524 
  CA	-3.7646277 10.638512 9.735483 
  CA	-2.7195091 12.208895 8.4258175 
  CA	-3.5650306 13.463369 8.528395 
  CA	-4.212139 14.205197 7.193132 
  CA	-5.434539 14.099059 6.9857354 
  CA	-3.3110158 17.518942 4.9964643 
  CA	-3.6847816 18.316902 4.0839577 
  CA	-3.563097 15.291753 6.5079355 
  CA	-4.1979575 16.282595 5.509633 
